/*---------------------------------------------------------------------------*\
  =========                 |
  \\      /  F ield         | OpenFOAM: The Open Source CFD Toolbox
   \\    /   O peration     | Website:  https://openfoam.org
    \\  /    A nd           | Version:  7
     \\/     M anipulation  |
\*---------------------------------------------------------------------------*/
Build  : 7-1ff648926f77
Exec   : actuatorCylinderSimpleFoam
Date   : Sep 19 2021
Time   : 23:02:41
Host   : "edgar-23-p110la"
PID    : 5465
I/O    : uncollated
Case   : /home/edgar/OpenFOAM/edgar-7/run/actuatorCylinderA
nProcs : 1
sigFpe : Enabling floating point exception trapping (FOAM_SIGFPE).
fileModificationChecking : Monitoring run-time modified files using timeStampMaster (fileModificationSkew 10)
allowSystemOperations : Allowing user-supplied system call operations

// * * * * * * * * * * * * * * * * * * * * * * * * * * * * * * * * * * * * * //
Create time

Create mesh for time = 0


SIMPLE: Convergence criteria found
        p: tolerance 0.001
        U: tolerance 0.0001
        "(k|epsilon)": tolerance 0.0001

Reading field p

Reading field U

Using #calcEntry at line 18 in file "/home/edgar/OpenFOAM/edgar-7/run/actuatorCylinderA/0/U"
Using #codeStream with "/home/edgar/OpenFOAM/edgar-7/run/actuatorCylinderA/dynamicCode/platforms/linux64GccDPInt32Opt/lib/libcodeStream_19acc08c3b9ed85d23cf550897c2ca5b23e12f8f.so"
Using #calcEntry at line 28 in file "/home/edgar/OpenFOAM/edgar-7/run/actuatorCylinderA/0/U"
Using #codeStream with "/home/edgar/OpenFOAM/edgar-7/run/actuatorCylinderA/dynamicCode/platforms/linux64GccDPInt32Opt/lib/libcodeStream_56a5504d35d6fc7170bba3b0aa94fb1045847428.so"
Using #calcEntry at line 29 in file "/home/edgar/OpenFOAM/edgar-7/run/actuatorCylinderA/0/U"
Using #codeStream with "/home/edgar/OpenFOAM/edgar-7/run/actuatorCylinderA/dynamicCode/platforms/linux64GccDPInt32Opt/lib/libcodeStream_10dec25574ac08b97c902a820f77974b54920756.so"
Using #calcEntry at line 30 in file "/home/edgar/OpenFOAM/edgar-7/run/actuatorCylinderA/0/U"
Using #codeStream with "/home/edgar/OpenFOAM/edgar-7/run/actuatorCylinderA/dynamicCode/platforms/linux64GccDPInt32Opt/lib/libcodeStream_22994e08257e07949c7d4dadfbf5aa5a057807a9.so"
Using #calcEntry at line 31 in file "/home/edgar/OpenFOAM/edgar-7/run/actuatorCylinderA/0/U"
Using #codeStream with "/home/edgar/OpenFOAM/edgar-7/run/actuatorCylinderA/dynamicCode/platforms/linux64GccDPInt32Opt/lib/libcodeStream_cfd4f1477e1b488c5ce89322743dc925c7fa880a.so"
Reading/calculating face flux field phi

Selecting incompressible transport model Newtonian
Selecting turbulence model type RAS
Selecting RAS turbulence model kEpsilon
Using #calcEntry at line 18 in file "/home/edgar/OpenFOAM/edgar-7/run/actuatorCylinderA/0/nut"
Using #calcEntry at line 28 in file "/home/edgar/OpenFOAM/edgar-7/run/actuatorCylinderA/0/nut"
Using #calcEntry at line 29 in file "/home/edgar/OpenFOAM/edgar-7/run/actuatorCylinderA/0/nut"
Using #calcEntry at line 30 in file "/home/edgar/OpenFOAM/edgar-7/run/actuatorCylinderA/0/nut"
Using #calcEntry at line 31 in file "/home/edgar/OpenFOAM/edgar-7/run/actuatorCylinderA/0/nut"
Using #calcEntry at line 18 in file "/home/edgar/OpenFOAM/edgar-7/run/actuatorCylinderA/0/k"
Using #calcEntry at line 28 in file "/home/edgar/OpenFOAM/edgar-7/run/actuatorCylinderA/0/k"
Using #calcEntry at line 29 in file "/home/edgar/OpenFOAM/edgar-7/run/actuatorCylinderA/0/k"
Using #calcEntry at line 30 in file "/home/edgar/OpenFOAM/edgar-7/run/actuatorCylinderA/0/k"
Using #calcEntry at line 31 in file "/home/edgar/OpenFOAM/edgar-7/run/actuatorCylinderA/0/k"
Using #calcEntry at line 18 in file "/home/edgar/OpenFOAM/edgar-7/run/actuatorCylinderA/0/epsilon"
Using #calcEntry at line 28 in file "/home/edgar/OpenFOAM/edgar-7/run/actuatorCylinderA/0/epsilon"
Using #calcEntry at line 29 in file "/home/edgar/OpenFOAM/edgar-7/run/actuatorCylinderA/0/epsilon"
Using #calcEntry at line 30 in file "/home/edgar/OpenFOAM/edgar-7/run/actuatorCylinderA/0/epsilon"
Using #calcEntry at line 31 in file "/home/edgar/OpenFOAM/edgar-7/run/actuatorCylinderA/0/epsilon"
RAS
{
    RASModel        kEpsilon;
    turbulence      on;
    printCoeffs     on;
    Cmu             0.09;
    C1              1.44;
    C2              1.92;
    C3              0;
    sigmak          1;
    sigmaEps        1.3;
}

No MRF models present

Create volume force field.
No finite volume options present

Starting time loop


Center ..........(15 0 0)
Ri ..............4.5
Ro ..............5.5
Spin ............1
NACA00 ..........18
BPA .............0
NB ..............3
CH ..............0.5
R ...............5
RPM .............45
LAMBDA ..........3
U0 ..............7.85

Cylinder cells have been collected.
Arrays were initialized.
actuatorCylinder0 was created.

Center ..........(-7.5 12.99 0)
Ri ..............4.5
Ro ..............5.5
Spin ............1
NACA00 ..........18
BPA .............0
NB ..............3
CH ..............0.5
R ...............5
RPM .............45
LAMBDA ..........3
U0 ..............7.85

Cylinder cells have been collected.
Arrays were initialized.
actuatorCylinder1 was created.

Center ..........(-7.5 -12.99 0)
Ri ..............4.5
Ro ..............5.5
Spin ............0
NACA00 ..........18
BPA .............0
NB ..............3
CH ..............0.5
R ...............5
RPM .............45
LAMBDA ..........3
U0 ..............7.85

Cylinder cells have been collected.
Arrays were initialized.
actuatorCylinder2 was created.
Time = 1

Power coefficient["0"] ... 0.407965

Power coefficient["1"] ... 0.407965

Power coefficient["2"] ... 0.3674

smoothSolver:  Solving for Ux, Initial residual = 1, Final residual = 0.0983876, No Iterations 2
smoothSolver:  Solving for Uy, Initial residual = 1, Final residual = 0.0947042, No Iterations 2
GAMG:  Solving for p, Initial residual = 1, Final residual = 0.0670204, No Iterations 2
time step continuity errors : sum local = 0.000672139, global = 7.29356e-08, cumulative = 7.29356e-08
smoothSolver:  Solving for epsilon, Initial residual = 1, Final residual = 0.0727943, No Iterations 2
smoothSolver:  Solving for k, Initial residual = 1, Final residual = 0.0946747, No Iterations 2
ExecutionTime = 0.89 s  ClockTime = 1 s

Time = 2

Power coefficient["0"] ... 0.40097

Power coefficient["1"] ... 0.40161

Power coefficient["2"] ... 0.353383

smoothSolver:  Solving for Ux, Initial residual = 0.282384, Final residual = 0.0276582, No Iterations 2
smoothSolver:  Solving for Uy, Initial residual = 0.352318, Final residual = 0.0336239, No Iterations 2
GAMG:  Solving for p, Initial residual = 0.592374, Final residual = 0.0376548, No Iterations 2
time step continuity errors : sum local = 0.000555003, global = -5.88373e-06, cumulative = -5.8108e-06
smoothSolver:  Solving for epsilon, Initial residual = 0.955049, Final residual = 0.0701426, No Iterations 2
smoothSolver:  Solving for k, Initial residual = 0.946523, Final residual = 0.0903732, No Iterations 2
ExecutionTime = 1.1 s  ClockTime = 1 s

Time = 3

Power coefficient["0"] ... 0.39973

Power coefficient["1"] ... 0.400124

Power coefficient["2"] ... 0.35084

smoothSolver:  Solving for Ux, Initial residual = 0.276385, Final residual = 0.024851, No Iterations 2
smoothSolver:  Solving for Uy, Initial residual = 0.357289, Final residual = 0.0328693, No Iterations 2
GAMG:  Solving for p, Initial residual = 0.356114, Final residual = 0.0225275, No Iterations 2
time step continuity errors : sum local = 0.00034382, global = -1.4684e-05, cumulative = -2.04948e-05
smoothSolver:  Solving for epsilon, Initial residual = 0.905018, Final residual = 0.0668945, No Iterations 2
smoothSolver:  Solving for k, Initial residual = 0.892191, Final residual = 0.0856898, No Iterations 2
ExecutionTime = 1.31 s  ClockTime = 2 s

Time = 4

Power coefficient["0"] ... 0.403516

Power coefficient["1"] ... 0.405453

Power coefficient["2"] ... 0.356006

smoothSolver:  Solving for Ux, Initial residual = 0.22522, Final residual = 0.0207887, No Iterations 2
smoothSolver:  Solving for Uy, Initial residual = 0.288687, Final residual = 0.0273875, No Iterations 2
GAMG:  Solving for p, Initial residual = 0.371691, Final residual = 0.0268008, No Iterations 2
time step continuity errors : sum local = 0.000415891, global = -3.31953e-05, cumulative = -5.36901e-05
smoothSolver:  Solving for epsilon, Initial residual = 0.846013, Final residual = 0.0628179, No Iterations 2
smoothSolver:  Solving for k, Initial residual = 0.835001, Final residual = 0.0804585, No Iterations 2
ExecutionTime = 1.52 s  ClockTime = 2 s

Time = 5

Power coefficient["0"] ... 0.403948

Power coefficient["1"] ... 0.405442

Power coefficient["2"] ... 0.356728

smoothSolver:  Solving for Ux, Initial residual = 0.137471, Final residual = 0.0131395, No Iterations 2
smoothSolver:  Solving for Uy, Initial residual = 0.174741, Final residual = 0.0169692, No Iterations 2
GAMG:  Solving for p, Initial residual = 0.349487, Final residual = 0.0228649, No Iterations 2
time step continuity errors : sum local = 0.000338313, global = -4.59861e-05, cumulative = -9.96763e-05
smoothSolver:  Solving for epsilon, Initial residual = 0.779686, Final residual = 0.0581717, No Iterations 2
smoothSolver:  Solving for k, Initial residual = 0.771126, Final residual = 0.0745751, No Iterations 2
ExecutionTime = 1.73 s  ClockTime = 2 s

Time = 6

Power coefficient["0"] ... 0.401354

Power coefficient["1"] ... 0.402672

Power coefficient["2"] ... 0.353832

smoothSolver:  Solving for Ux, Initial residual = 0.0966985, Final residual = 0.00310124, No Iterations 3
smoothSolver:  Solving for Uy, Initial residual = 0.116909, Final residual = 0.0116779, No Iterations 2
GAMG:  Solving for p, Initial residual = 0.281286, Final residual = 0.0170779, No Iterations 2
time step continuity errors : sum local = 0.000250641, global = -2.26807e-05, cumulative = -0.000122357
smoothSolver:  Solving for epsilon, Initial residual = 0.710795, Final residual = 0.0532686, No Iterations 2
smoothSolver:  Solving for k, Initial residual = 0.704978, Final residual = 0.068401, No Iterations 2
ExecutionTime = 1.94 s  ClockTime = 2 s

Time = 7

Power coefficient["0"] ... 0.398875

Power coefficient["1"] ... 0.398721

Power coefficient["2"] ... 0.34925

smoothSolver:  Solving for Ux, Initial residual = 0.079072, Final residual = 0.00260257, No Iterations 3
smoothSolver:  Solving for Uy, Initial residual = 0.079047, Final residual = 0.00252492, No Iterations 3
GAMG:  Solving for p, Initial residual = 0.232363, Final residual = 0.0155705, No Iterations 2
time step continuity errors : sum local = 0.000250772, global = -1.51618e-05, cumulative = -0.000137519
smoothSolver:  Solving for epsilon, Initial residual = 0.642582, Final residual = 0.0483539, No Iterations 2
smoothSolver:  Solving for k, Initial residual = 0.639834, Final residual = 0.0622563, No Iterations 2
ExecutionTime = 2.16 s  ClockTime = 2 s

Time = 8

Power coefficient["0"] ... 0.395816

Power coefficient["1"] ... 0.396251

Power coefficient["2"] ... 0.345518

smoothSolver:  Solving for Ux, Initial residual = 0.0634152, Final residual = 0.00208837, No Iterations 3
smoothSolver:  Solving for Uy, Initial residual = 0.0601098, Final residual = 0.00597832, No Iterations 2
GAMG:  Solving for p, Initial residual = 0.205059, Final residual = 0.0135283, No Iterations 2
time step continuity errors : sum local = 0.000226199, global = 8.98622e-06, cumulative = -0.000128532
smoothSolver:  Solving for epsilon, Initial residual = 0.577768, Final residual = 0.0436342, No Iterations 2
smoothSolver:  Solving for k, Initial residual = 0.577544, Final residual = 0.0563557, No Iterations 2
ExecutionTime = 2.38 s  ClockTime = 3 s

Time = 9

Power coefficient["0"] ... 0.396321

Power coefficient["1"] ... 0.396518

Power coefficient["2"] ... 0.344243

smoothSolver:  Solving for Ux, Initial residual = 0.0581569, Final residual = 0.00187095, No Iterations 3
smoothSolver:  Solving for Uy, Initial residual = 0.0588153, Final residual = 0.00579046, No Iterations 2
GAMG:  Solving for p, Initial residual = 0.174982, Final residual = 0.0107419, No Iterations 2
time step continuity errors : sum local = 0.000177139, global = 3.51144e-05, cumulative = -9.34181e-05
smoothSolver:  Solving for epsilon, Initial residual = 0.517153, Final residual = 0.0392012, No Iterations 2
smoothSolver:  Solving for k, Initial residual = 0.5191, Final residual = 0.0507932, No Iterations 2
ExecutionTime = 2.59 s  ClockTime = 3 s

Time = 10

Power coefficient["0"] ... 0.398646

Power coefficient["1"] ... 0.39836

Power coefficient["2"] ... 0.345124

smoothSolver:  Solving for Ux, Initial residual = 0.0578961, Final residual = 0.0018858, No Iterations 3
smoothSolver:  Solving for Uy, Initial residual = 0.0571081, Final residual = 0.00569424, No Iterations 2
GAMG:  Solving for p, Initial residual = 0.163788, Final residual = 0.012269, No Iterations 2
time step continuity errors : sum local = 0.000185845, global = 4.25551e-05, cumulative = -5.0863e-05
smoothSolver:  Solving for epsilon, Initial residual = 0.461643, Final residual = 0.0351216, No Iterations 2
smoothSolver:  Solving for k, Initial residual = 0.465595, Final residual = 0.0456767, No Iterations 2
ExecutionTime = 2.85 s  ClockTime = 3 s

Time = 11

Power coefficient["0"] ... 0.400968

Power coefficient["1"] ... 0.400935

Power coefficient["2"] ... 0.346972

smoothSolver:  Solving for Ux, Initial residual = 0.0495419, Final residual = 0.0016621, No Iterations 3
smoothSolver:  Solving for Uy, Initial residual = 0.0518507, Final residual = 0.00168038, No Iterations 3
GAMG:  Solving for p, Initial residual = 0.18607, Final residual = 0.0127654, No Iterations 2
time step continuity errors : sum local = 0.000162362, global = 3.97037e-05, cumulative = -1.11593e-05
smoothSolver:  Solving for epsilon, Initial residual = 0.411696, Final residual = 0.0314368, No Iterations 2
smoothSolver:  Solving for k, Initial residual = 0.41719, Final residual = 0.0410369, No Iterations 2
ExecutionTime = 3.07 s  ClockTime = 3 s

Time = 12

Power coefficient["0"] ... 0.402739

Power coefficient["1"] ... 0.402419

Power coefficient["2"] ... 0.348751

smoothSolver:  Solving for Ux, Initial residual = 0.0435842, Final residual = 0.00149638, No Iterations 3
smoothSolver:  Solving for Uy, Initial residual = 0.0464706, Final residual = 0.00152811, No Iterations 3
GAMG:  Solving for p, Initial residual = 0.148979, Final residual = 0.0092869, No Iterations 2
time step continuity errors : sum local = 0.000125966, global = 2.10689e-05, cumulative = 9.90954e-06
smoothSolver:  Solving for epsilon, Initial residual = 0.367295, Final residual = 0.028148, No Iterations 2
smoothSolver:  Solving for k, Initial residual = 0.373844, Final residual = 0.0368701, No Iterations 2
ExecutionTime = 3.29 s  ClockTime = 4 s

Time = 13

Power coefficient["0"] ... 0.401916

Power coefficient["1"] ... 0.402001

Power coefficient["2"] ... 0.349668

smoothSolver:  Solving for Ux, Initial residual = 0.040192, Final residual = 0.00139414, No Iterations 3
smoothSolver:  Solving for Uy, Initial residual = 0.0424425, Final residual = 0.0013928, No Iterations 3
GAMG:  Solving for p, Initial residual = 0.119159, Final residual = 0.00787683, No Iterations 2
time step continuity errors : sum local = 0.000114383, global = -9.93728e-06, cumulative = -2.77345e-08
smoothSolver:  Solving for epsilon, Initial residual = 0.328099, Final residual = 0.0252384, No Iterations 2
smoothSolver:  Solving for k, Initial residual = 0.335353, Final residual = 0.0331657, No Iterations 2
ExecutionTime = 3.5 s  ClockTime = 4 s

Time = 14

Power coefficient["0"] ... 0.400578

Power coefficient["1"] ... 0.400864

Power coefficient["2"] ... 0.350209

smoothSolver:  Solving for Ux, Initial residual = 0.0378837, Final residual = 0.00131149, No Iterations 3
smoothSolver:  Solving for Uy, Initial residual = 0.0400121, Final residual = 0.00130671, No Iterations 3
GAMG:  Solving for p, Initial residual = 0.119525, Final residual = 0.00919588, No Iterations 2
time step continuity errors : sum local = 0.000130361, global = -2.06665e-05, cumulative = -2.06943e-05
smoothSolver:  Solving for epsilon, Initial residual = 0.293779, Final residual = 0.0226809, No Iterations 2
smoothSolver:  Solving for k, Initial residual = 0.301426, Final residual = 0.0298912, No Iterations 2
ExecutionTime = 3.71 s  ClockTime = 4 s

Time = 15

Power coefficient["0"] ... 0.399769

Power coefficient["1"] ... 0.399645

Power coefficient["2"] ... 0.350739

smoothSolver:  Solving for Ux, Initial residual = 0.0340651, Final residual = 0.00118039, No Iterations 3
smoothSolver:  Solving for Uy, Initial residual = 0.0384926, Final residual = 0.00126624, No Iterations 3
GAMG:  Solving for p, Initial residual = 0.122052, Final residual = 0.0116893, No Iterations 2
time step continuity errors : sum local = 0.000143242, global = 5.91421e-08, cumulative = -2.06351e-05
smoothSolver:  Solving for epsilon, Initial residual = 0.263782, Final residual = 0.0204356, No Iterations 2
smoothSolver:  Solving for k, Initial residual = 0.271669, Final residual = 0.0270088, No Iterations 2
ExecutionTime = 3.93 s  ClockTime = 4 s

Time = 16

Power coefficient["0"] ... 0.400029

Power coefficient["1"] ... 0.399333

Power coefficient["2"] ... 0.351659

smoothSolver:  Solving for Ux, Initial residual = 0.0291675, Final residual = 0.0010283, No Iterations 3
smoothSolver:  Solving for Uy, Initial residual = 0.0351487, Final residual = 0.00117362, No Iterations 3
GAMG:  Solving for p, Initial residual = 0.0955545, Final residual = 0.00780383, No Iterations 2
time step continuity errors : sum local = 0.000106002, global = -8.88867e-06, cumulative = -2.95238e-05
smoothSolver:  Solving for epsilon, Initial residual = 0.237372, Final residual = 0.018453, No Iterations 2
smoothSolver:  Solving for k, Initial residual = 0.245432, Final residual = 0.0244623, No Iterations 2
ExecutionTime = 4.13 s  ClockTime = 4 s

Time = 17

Power coefficient["0"] ... 0.400718

Power coefficient["1"] ... 0.400222

Power coefficient["2"] ... 0.353483

smoothSolver:  Solving for Ux, Initial residual = 0.02616, Final residual = 0.000939358, No Iterations 3
smoothSolver:  Solving for Uy, Initial residual = 0.0316881, Final residual = 0.00107175, No Iterations 3
GAMG:  Solving for p, Initial residual = 0.0772173, Final residual = 0.00525834, No Iterations 2
time step continuity errors : sum local = 7.77524e-05, global = 5.52005e-06, cumulative = -2.40037e-05
smoothSolver:  Solving for epsilon, Initial residual = 0.214231, Final residual = 0.0167091, No Iterations 2
smoothSolver:  Solving for k, Initial residual = 0.222381, Final residual = 0.0222196, No Iterations 2
ExecutionTime = 4.36 s  ClockTime = 5 s

Time = 18

Power coefficient["0"] ... 0.401921

Power coefficient["1"] ... 0.401441

Power coefficient["2"] ... 0.355488

smoothSolver:  Solving for Ux, Initial residual = 0.0249185, Final residual = 0.000904095, No Iterations 3
smoothSolver:  Solving for Uy, Initial residual = 0.0290991, Final residual = 0.000990308, No Iterations 3
GAMG:  Solving for p, Initial residual = 0.0703427, Final residual = 0.00460572, No Iterations 2
time step continuity errors : sum local = 6.71916e-05, global = 1.77154e-05, cumulative = -6.28837e-06
smoothSolver:  Solving for epsilon, Initial residual = 0.193893, Final residual = 0.0151725, No Iterations 2
smoothSolver:  Solving for k, Initial residual = 0.20203, Final residual = 0.00641274, No Iterations 3
ExecutionTime = 4.58 s  ClockTime = 5 s

Time = 19

Power coefficient["0"] ... 0.402969

Power coefficient["1"] ... 0.402673

Power coefficient["2"] ... 0.357494

smoothSolver:  Solving for Ux, Initial residual = 0.0245525, Final residual = 0.000892032, No Iterations 3
smoothSolver:  Solving for Uy, Initial residual = 0.0276452, Final residual = 0.000939572, No Iterations 3
GAMG:  Solving for p, Initial residual = 0.0701199, Final residual = 0.0061223, No Iterations 2
time step continuity errors : sum local = 8.09945e-05, global = 1.3731e-05, cumulative = 7.44261e-06
smoothSolver:  Solving for epsilon, Initial residual = 0.176082, Final residual = 0.0138094, No Iterations 2
smoothSolver:  Solving for k, Initial residual = 0.183002, Final residual = 0.00582244, No Iterations 3
ExecutionTime = 4.8 s  ClockTime = 5 s

Time = 20

Power coefficient["0"] ... 0.403642

Power coefficient["1"] ... 0.403688

Power coefficient["2"] ... 0.359607

smoothSolver:  Solving for Ux, Initial residual = 0.0240985, Final residual = 0.000873122, No Iterations 3
smoothSolver:  Solving for Uy, Initial residual = 0.0272809, Final residual = 0.000925532, No Iterations 3
GAMG:  Solving for p, Initial residual = 0.0771732, Final residual = 0.00686852, No Iterations 2
time step continuity errors : sum local = 7.61458e-05, global = 1.88236e-05, cumulative = 2.62662e-05
smoothSolver:  Solving for epsilon, Initial residual = 0.160391, Final residual = 0.0126066, No Iterations 2
smoothSolver:  Solving for k, Initial residual = 0.166319, Final residual = 0.0053041, No Iterations 3
ExecutionTime = 5.02 s  ClockTime = 5 s

Time = 21

Power coefficient["0"] ... 0.403651

Power coefficient["1"] ... 0.404601

Power coefficient["2"] ... 0.361756

smoothSolver:  Solving for Ux, Initial residual = 0.0230399, Final residual = 0.000836467, No Iterations 3
smoothSolver:  Solving for Uy, Initial residual = 0.0263833, Final residual = 0.000898271, No Iterations 3
GAMG:  Solving for p, Initial residual = 0.0625482, Final residual = 0.00494768, No Iterations 2
time step continuity errors : sum local = 5.89293e-05, global = 8.50751e-06, cumulative = 3.47737e-05
smoothSolver:  Solving for epsilon, Initial residual = 0.146479, Final residual = 0.0115389, No Iterations 2
smoothSolver:  Solving for k, Initial residual = 0.151607, Final residual = 0.00484665, No Iterations 3
ExecutionTime = 5.24 s  ClockTime = 5 s

Time = 22

Power coefficient["0"] ... 0.404239

Power coefficient["1"] ... 0.405477

Power coefficient["2"] ... 0.363808

smoothSolver:  Solving for Ux, Initial residual = 0.0216747, Final residual = 0.000793745, No Iterations 3
smoothSolver:  Solving for Uy, Initial residual = 0.0246441, Final residual = 0.000843837, No Iterations 3
GAMG:  Solving for p, Initial residual = 0.0571619, Final residual = 0.00462685, No Iterations 2
time step continuity errors : sum local = 5.50489e-05, global = 7.02477e-07, cumulative = 3.54762e-05
smoothSolver:  Solving for epsilon, Initial residual = 0.134106, Final residual = 0.0105884, No Iterations 2
smoothSolver:  Solving for k, Initial residual = 0.138589, Final residual = 0.00444166, No Iterations 3
ExecutionTime = 5.45 s  ClockTime = 6 s

Time = 23

Power coefficient["0"] ... 0.404921

Power coefficient["1"] ... 0.406078

Power coefficient["2"] ... 0.365491

smoothSolver:  Solving for Ux, Initial residual = 0.0202917, Final residual = 0.000752157, No Iterations 3
smoothSolver:  Solving for Uy, Initial residual = 0.0224165, Final residual = 0.000772221, No Iterations 3
GAMG:  Solving for p, Initial residual = 0.0563673, Final residual = 0.00545486, No Iterations 2
time step continuity errors : sum local = 6.09384e-05, global = 2.457e-06, cumulative = 3.79332e-05
smoothSolver:  Solving for epsilon, Initial residual = 0.123091, Final residual = 0.00974056, No Iterations 2
smoothSolver:  Solving for k, Initial residual = 0.127052, Final residual = 0.00408185, No Iterations 3
ExecutionTime = 5.68 s  ClockTime = 6 s

Time = 24

Power coefficient["0"] ... 0.405607

Power coefficient["1"] ... 0.406389

Power coefficient["2"] ... 0.365724

smoothSolver:  Solving for Ux, Initial residual = 0.0191271, Final residual = 0.000715875, No Iterations 3
smoothSolver:  Solving for Uy, Initial residual = 0.0207175, Final residual = 0.00071775, No Iterations 3
GAMG:  Solving for p, Initial residual = 0.0496154, Final residual = 0.00327579, No Iterations 3
time step continuity errors : sum local = 3.65475e-05, global = -2.45292e-05, cumulative = 1.3404e-05
smoothSolver:  Solving for epsilon, Initial residual = 0.113221, Final residual = 0.00897911, No Iterations 2
smoothSolver:  Solving for k, Initial residual = 0.116748, Final residual = 0.00375964, No Iterations 3
ExecutionTime = 5.91 s  ClockTime = 6 s

Time = 25

Power coefficient["0"] ... 0.406196

Power coefficient["1"] ... 0.407012

Power coefficient["2"] ... 0.366273

smoothSolver:  Solving for Ux, Initial residual = 0.0181551, Final residual = 0.000681965, No Iterations 3
smoothSolver:  Solving for Uy, Initial residual = 0.020483, Final residual = 0.000710964, No Iterations 3
GAMG:  Solving for p, Initial residual = 0.040991, Final residual = 0.00406293, No Iterations 2
time step continuity errors : sum local = 4.90993e-05, global = 1.26927e-05, cumulative = 2.60967e-05
smoothSolver:  Solving for epsilon, Initial residual = 0.104435, Final residual = 0.00830001, No Iterations 2
smoothSolver:  Solving for k, Initial residual = 0.107607, Final residual = 0.00347325, No Iterations 3
ExecutionTime = 6.12 s  ClockTime = 6 s

Time = 26

Power coefficient["0"] ... 0.406598

Power coefficient["1"] ... 0.407623

Power coefficient["2"] ... 0.366861

smoothSolver:  Solving for Ux, Initial residual = 0.0172043, Final residual = 0.000647734, No Iterations 3
smoothSolver:  Solving for Uy, Initial residual = 0.0206518, Final residual = 0.000718865, No Iterations 3
GAMG:  Solving for p, Initial residual = 0.0364627, Final residual = 0.00302747, No Iterations 2
time step continuity errors : sum local = 3.71929e-05, global = 1.28585e-05, cumulative = 3.89551e-05
smoothSolver:  Solving for epsilon, Initial residual = 0.0965152, Final residual = 0.00768792, No Iterations 2
smoothSolver:  Solving for k, Initial residual = 0.0993891, Final residual = 0.00321586, No Iterations 3
ExecutionTime = 6.34 s  ClockTime = 7 s

Time = 27

Power coefficient["0"] ... 0.406955

Power coefficient["1"] ... 0.40805

Power coefficient["2"] ... 0.367331

smoothSolver:  Solving for Ux, Initial residual = 0.0165733, Final residual = 0.000624989, No Iterations 3
smoothSolver:  Solving for Uy, Initial residual = 0.0204887, Final residual = 0.000714613, No Iterations 3
GAMG:  Solving for p, Initial residual = 0.0340492, Final residual = 0.00280142, No Iterations 2
time step continuity errors : sum local = 3.30024e-05, global = 6.41912e-06, cumulative = 4.53743e-05
smoothSolver:  Solving for epsilon, Initial residual = 0.0893838, Final residual = 0.00713572, No Iterations 2
smoothSolver:  Solving for k, Initial residual = 0.0920107, Final residual = 0.00298433, No Iterations 3
ExecutionTime = 6.56 s  ClockTime = 7 s

Time = 28

Power coefficient["0"] ... 0.407277

Power coefficient["1"] ... 0.408474

Power coefficient["2"] ... 0.367726

smoothSolver:  Solving for Ux, Initial residual = 0.0162309, Final residual = 0.0006139, No Iterations 3
smoothSolver:  Solving for Uy, Initial residual = 0.0195888, Final residual = 0.000685062, No Iterations 3
GAMG:  Solving for p, Initial residual = 0.033338, Final residual = 0.00200324, No Iterations 3
time step continuity errors : sum local = 2.16674e-05, global = 9.67267e-07, cumulative = 4.63415e-05
smoothSolver:  Solving for epsilon, Initial residual = 0.0829427, Final residual = 0.00663691, No Iterations 2
smoothSolver:  Solving for k, Initial residual = 0.0853647, Final residual = 0.00277579, No Iterations 3
ExecutionTime = 6.79 s  ClockTime = 7 s

Time = 29

Power coefficient["0"] ... 0.407318

Power coefficient["1"] ... 0.408915

Power coefficient["2"] ... 0.368073

smoothSolver:  Solving for Ux, Initial residual = 0.0158649, Final residual = 0.000603826, No Iterations 3
smoothSolver:  Solving for Uy, Initial residual = 0.018135, Final residual = 0.000635699, No Iterations 3
GAMG:  Solving for p, Initial residual = 0.0307149, Final residual = 0.00181362, No Iterations 3
time step continuity errors : sum local = 1.95016e-05, global = -4.64085e-06, cumulative = 4.17007e-05
smoothSolver:  Solving for epsilon, Initial residual = 0.0771087, Final residual = 0.00618389, No Iterations 2
smoothSolver:  Solving for k, Initial residual = 0.0793633, Final residual = 0.00258683, No Iterations 3
ExecutionTime = 7.02 s  ClockTime = 7 s

Time = 30

Power coefficient["0"] ... 0.406372

Power coefficient["1"] ... 0.40937

Power coefficient["2"] ... 0.368438

smoothSolver:  Solving for Ux, Initial residual = 0.0152924, Final residual = 0.000586295, No Iterations 3
smoothSolver:  Solving for Uy, Initial residual = 0.0170305, Final residual = 0.000598998, No Iterations 3
GAMG:  Solving for p, Initial residual = 0.0290938, Final residual = 0.00282711, No Iterations 2
time step continuity errors : sum local = 3.03328e-05, global = 3.77888e-06, cumulative = 4.54796e-05
smoothSolver:  Solving for epsilon, Initial residual = 0.0718287, Final residual = 0.00577363, No Iterations 2
smoothSolver:  Solving for k, Initial residual = 0.073942, Final residual = 0.00241601, No Iterations 3
ExecutionTime = 7.24 s  ClockTime = 8 s

Time = 31

Power coefficient["0"] ... 0.405449

Power coefficient["1"] ... 0.409826

Power coefficient["2"] ... 0.368845

smoothSolver:  Solving for Ux, Initial residual = 0.0146142, Final residual = 0.000563902, No Iterations 3
smoothSolver:  Solving for Uy, Initial residual = 0.0163571, Final residual = 0.000577995, No Iterations 3
GAMG:  Solving for p, Initial residual = 0.0257405, Final residual = 0.00191691, No Iterations 3
time step continuity errors : sum local = 2.02262e-05, global = -1.30403e-05, cumulative = 3.24393e-05
smoothSolver:  Solving for epsilon, Initial residual = 0.0670181, Final residual = 0.00539896, No Iterations 2
smoothSolver:  Solving for k, Initial residual = 0.0690094, Final residual = 0.00226021, No Iterations 3
ExecutionTime = 7.47 s  ClockTime = 8 s

Time = 32

Power coefficient["0"] ... 0.404513

Power coefficient["1"] ... 0.410279

Power coefficient["2"] ... 0.369288

smoothSolver:  Solving for Ux, Initial residual = 0.0139441, Final residual = 0.00054113, No Iterations 3
smoothSolver:  Solving for Uy, Initial residual = 0.0159536, Final residual = 0.000565666, No Iterations 3
GAMG:  Solving for p, Initial residual = 0.0222862, Final residual = 0.00156271, No Iterations 3
time step continuity errors : sum local = 1.68041e-05, global = -8.34335e-06, cumulative = 2.40959e-05
smoothSolver:  Solving for epsilon, Initial residual = 0.0626559, Final residual = 0.00505869, No Iterations 2
smoothSolver:  Solving for k, Initial residual = 0.0645452, Final residual = 0.00211911, No Iterations 3
ExecutionTime = 7.7 s  ClockTime = 8 s

Time = 33

Power coefficient["0"] ... 0.403596

Power coefficient["1"] ... 0.410763

Power coefficient["2"] ... 0.369739

smoothSolver:  Solving for Ux, Initial residual = 0.0133841, Final residual = 0.000521228, No Iterations 3
smoothSolver:  Solving for Uy, Initial residual = 0.0159413, Final residual = 0.000565925, No Iterations 3
GAMG:  Solving for p, Initial residual = 0.0197114, Final residual = 0.00100843, No Iterations 3
time step continuity errors : sum local = 1.11817e-05, global = -4.79918e-06, cumulative = 1.92967e-05
smoothSolver:  Solving for epsilon, Initial residual = 0.0586592, Final residual = 0.00474709, No Iterations 2
smoothSolver:  Solving for k, Initial residual = 0.0604664, Final residual = 0.00199017, No Iterations 3
ExecutionTime = 7.94 s  ClockTime = 8 s

Time = 34

Power coefficient["0"] ... 0.402771

Power coefficient["1"] ... 0.411285

Power coefficient["2"] ... 0.370322

smoothSolver:  Solving for Ux, Initial residual = 0.0130244, Final residual = 0.000508051, No Iterations 3
smoothSolver:  Solving for Uy, Initial residual = 0.0158138, Final residual = 0.000562231, No Iterations 3
GAMG:  Solving for p, Initial residual = 0.0179182, Final residual = 0.00105636, No Iterations 3
time step continuity errors : sum local = 1.16885e-05, global = -2.34096e-06, cumulative = 1.69558e-05
smoothSolver:  Solving for epsilon, Initial residual = 0.0550004, Final residual = 0.00446092, No Iterations 2
smoothSolver:  Solving for k, Initial residual = 0.0567395, Final residual = 0.00187195, No Iterations 3
ExecutionTime = 8.16 s  ClockTime = 8 s

Time = 35

Power coefficient["0"] ... 0.402085

Power coefficient["1"] ... 0.411174

Power coefficient["2"] ... 0.370941

smoothSolver:  Solving for Ux, Initial residual = 0.0126941, Final residual = 0.000496785, No Iterations 3
smoothSolver:  Solving for Uy, Initial residual = 0.0152907, Final residual = 0.000545176, No Iterations 3
GAMG:  Solving for p, Initial residual = 0.0170776, Final residual = 0.00131372, No Iterations 3
time step continuity errors : sum local = 1.42511e-05, global = -2.42757e-06, cumulative = 1.45282e-05
smoothSolver:  Solving for epsilon, Initial residual = 0.0516457, Final residual = 0.00419872, No Iterations 2
smoothSolver:  Solving for k, Initial residual = 0.0533258, Final residual = 0.00176375, No Iterations 3
ExecutionTime = 8.39 s  ClockTime = 9 s

Time = 36

Power coefficient["0"] ... 0.401507

Power coefficient["1"] ... 0.410891

Power coefficient["2"] ... 0.371207

smoothSolver:  Solving for Ux, Initial residual = 0.0123347, Final residual = 0.000485225, No Iterations 3
smoothSolver:  Solving for Uy, Initial residual = 0.0145272, Final residual = 0.000519853, No Iterations 3
GAMG:  Solving for p, Initial residual = 0.0164117, Final residual = 0.00139963, No Iterations 3
time step continuity errors : sum local = 1.48016e-05, global = -3.06058e-06, cumulative = 1.14676e-05
smoothSolver:  Solving for epsilon, Initial residual = 0.0485654, Final residual = 0.00395721, No Iterations 2
smoothSolver:  Solving for k, Initial residual = 0.0501962, Final residual = 0.00166421, No Iterations 3
ExecutionTime = 8.62 s  ClockTime = 9 s

Time = 37

Power coefficient["0"] ... 0.40097

Power coefficient["1"] ... 0.41064

Power coefficient["2"] ... 0.371411

smoothSolver:  Solving for Ux, Initial residual = 0.0119833, Final residual = 0.000474034, No Iterations 3
smoothSolver:  Solving for Uy, Initial residual = 0.0138475, Final residual = 0.000496983, No Iterations 3
GAMG:  Solving for p, Initial residual = 0.0148543, Final residual = 0.00112343, No Iterations 3
time step continuity errors : sum local = 1.17148e-05, global = -3.03866e-06, cumulative = 8.42897e-06
smoothSolver:  Solving for epsilon, Initial residual = 0.0457449, Final residual = 0.00373574, No Iterations 2
smoothSolver:  Solving for k, Initial residual = 0.0473338, Final residual = 0.0015731, No Iterations 3
ExecutionTime = 8.85 s  ClockTime = 9 s

Time = 38

Power coefficient["0"] ... 0.400444

Power coefficient["1"] ... 0.41038

Power coefficient["2"] ... 0.371639

smoothSolver:  Solving for Ux, Initial residual = 0.0116439, Final residual = 0.000462962, No Iterations 3
smoothSolver:  Solving for Uy, Initial residual = 0.0133568, Final residual = 0.000480634, No Iterations 3
GAMG:  Solving for p, Initial residual = 0.0132914, Final residual = 0.000887596, No Iterations 3
time step continuity errors : sum local = 9.28777e-06, global = -3.65128e-06, cumulative = 4.77769e-06
smoothSolver:  Solving for epsilon, Initial residual = 0.0431254, Final residual = 0.00353027, No Iterations 2
smoothSolver:  Solving for k, Initial residual = 0.044681, Final residual = 0.00148885, No Iterations 3
ExecutionTime = 9.08 s  ClockTime = 9 s

Time = 39

Power coefficient["0"] ... 0.399932

Power coefficient["1"] ... 0.410111

Power coefficient["2"] ... 0.371903

smoothSolver:  Solving for Ux, Initial residual = 0.0113075, Final residual = 0.000451555, No Iterations 3
smoothSolver:  Solving for Uy, Initial residual = 0.0130503, Final residual = 0.000470658, No Iterations 3
GAMG:  Solving for p, Initial residual = 0.0125159, Final residual = 0.000939464, No Iterations 3
time step continuity errors : sum local = 9.8255e-06, global = -5.10239e-06, cumulative = -3.247e-07
smoothSolver:  Solving for epsilon, Initial residual = 0.0407269, Final residual = 0.00334144, No Iterations 2
smoothSolver:  Solving for k, Initial residual = 0.0422543, Final residual = 0.00141151, No Iterations 3
ExecutionTime = 9.31 s  ClockTime = 10 s

Time = 40

Power coefficient["0"] ... 0.399446

Power coefficient["1"] ... 0.409869

Power coefficient["2"] ... 0.372199

smoothSolver:  Solving for Ux, Initial residual = 0.0109755, Final residual = 0.000439768, No Iterations 3
smoothSolver:  Solving for Uy, Initial residual = 0.0128651, Final residual = 0.000464839, No Iterations 3
GAMG:  Solving for p, Initial residual = 0.0116657, Final residual = 0.000947487, No Iterations 3
time step continuity errors : sum local = 9.86445e-06, global = -5.93835e-06, cumulative = -6.26305e-06
smoothSolver:  Solving for epsilon, Initial residual = 0.0384985, Final residual = 0.00316621, No Iterations 2
smoothSolver:  Solving for k, Initial residual = 0.0400038, Final residual = 0.00133986, No Iterations 3
ExecutionTime = 9.53 s  ClockTime = 10 s

Time = 41

Power coefficient["0"] ... 0.399002

Power coefficient["1"] ... 0.409679

Power coefficient["2"] ... 0.372507

smoothSolver:  Solving for Ux, Initial residual = 0.0106637, Final residual = 0.000428435, No Iterations 3
smoothSolver:  Solving for Uy, Initial residual = 0.0127058, Final residual = 0.000459909, No Iterations 3
GAMG:  Solving for p, Initial residual = 0.010797, Final residual = 0.000847793, No Iterations 3
time step continuity errors : sum local = 8.8837e-06, global = -5.43985e-06, cumulative = -1.17029e-05
smoothSolver:  Solving for epsilon, Initial residual = 0.0364355, Final residual = 0.00300334, No Iterations 2
smoothSolver:  Solving for k, Initial residual = 0.0379232, Final residual = 0.00127333, No Iterations 3
ExecutionTime = 9.76 s  ClockTime = 10 s

Time = 42

Power coefficient["0"] ... 0.398664

Power coefficient["1"] ... 0.409546

Power coefficient["2"] ... 0.372802

smoothSolver:  Solving for Ux, Initial residual = 0.010361, Final residual = 0.000417637, No Iterations 3
smoothSolver:  Solving for Uy, Initial residual = 0.0124651, Final residual = 0.000452258, No Iterations 3
GAMG:  Solving for p, Initial residual = 0.0100163, Final residual = 0.000748597, No Iterations 3
time step continuity errors : sum local = 7.93075e-06, global = -3.53727e-06, cumulative = -1.52402e-05
smoothSolver:  Solving for epsilon, Initial residual = 0.0345334, Final residual = 0.00285307, No Iterations 2
smoothSolver:  Solving for k, Initial residual = 0.0360056, Final residual = 0.00121201, No Iterations 3
ExecutionTime = 9.99 s  ClockTime = 10 s

Time = 43

Power coefficient["0"] ... 0.398405

Power coefficient["1"] ... 0.40945

Power coefficient["2"] ... 0.373079

smoothSolver:  Solving for Ux, Initial residual = 0.0100785, Final residual = 0.000407907, No Iterations 3
smoothSolver:  Solving for Uy, Initial residual = 0.012123, Final residual = 0.000441056, No Iterations 3
GAMG:  Solving for p, Initial residual = 0.00938542, Final residual = 0.000801244, No Iterations 3
time step continuity errors : sum local = 8.51401e-06, global = -2.61752e-06, cumulative = -1.78577e-05
smoothSolver:  Solving for epsilon, Initial residual = 0.0327487, Final residual = 0.00271237, No Iterations 2
smoothSolver:  Solving for k, Initial residual = 0.0342079, Final residual = 0.00115467, No Iterations 3
ExecutionTime = 10.21 s  ClockTime = 10 s

Time = 44

Power coefficient["0"] ... 0.398222

Power coefficient["1"] ... 0.409368

Power coefficient["2"] ... 0.373344

smoothSolver:  Solving for Ux, Initial residual = 0.00983381, Final residual = 0.000399743, No Iterations 3
smoothSolver:  Solving for Uy, Initial residual = 0.0117065, Final residual = 0.000427152, No Iterations 3
GAMG:  Solving for p, Initial residual = 0.00883484, Final residual = 0.00084796, No Iterations 3
time step continuity errors : sum local = 8.9281e-06, global = -1.90227e-06, cumulative = -1.976e-05
smoothSolver:  Solving for epsilon, Initial residual = 0.0311097, Final residual = 0.00258243, No Iterations 2
smoothSolver:  Solving for k, Initial residual = 0.0325559, Final residual = 0.00110175, No Iterations 3
ExecutionTime = 10.44 s  ClockTime = 11 s

Time = 45

Power coefficient["0"] ... 0.39807

Power coefficient["1"] ... 0.409286

Power coefficient["2"] ... 0.373611

smoothSolver:  Solving for Ux, Initial residual = 0.00961945, Final residual = 0.000392603, No Iterations 3
smoothSolver:  Solving for Uy, Initial residual = 0.0113098, Final residual = 0.000413759, No Iterations 3
GAMG:  Solving for p, Initial residual = 0.00833675, Final residual = 0.000764549, No Iterations 3
time step continuity errors : sum local = 7.9456e-06, global = -1.4635e-06, cumulative = -2.12235e-05
smoothSolver:  Solving for epsilon, Initial residual = 0.0295756, Final residual = 0.00246111, No Iterations 2
smoothSolver:  Solving for k, Initial residual = 0.0310097, Final residual = 0.00105239, No Iterations 3
ExecutionTime = 10.67 s  ClockTime = 11 s

Time = 46

Power coefficient["0"] ... 0.397937

Power coefficient["1"] ... 0.409205

Power coefficient["2"] ... 0.37389

smoothSolver:  Solving for Ux, Initial residual = 0.00941177, Final residual = 0.000385492, No Iterations 3
smoothSolver:  Solving for Uy, Initial residual = 0.0110139, Final residual = 0.00040369, No Iterations 3
GAMG:  Solving for p, Initial residual = 0.00773224, Final residual = 0.000595975, No Iterations 3
time step continuity errors : sum local = 6.23369e-06, global = -1.70283e-06, cumulative = -2.29263e-05
smoothSolver:  Solving for epsilon, Initial residual = 0.0281476, Final residual = 0.00234767, No Iterations 2
smoothSolver:  Solving for k, Initial residual = 0.0295681, Final residual = 0.00100613, No Iterations 3
ExecutionTime = 10.9 s  ClockTime = 11 s

Time = 47

Power coefficient["0"] ... 0.397831

Power coefficient["1"] ... 0.40913

Power coefficient["2"] ... 0.374177

smoothSolver:  Solving for Ux, Initial residual = 0.00919394, Final residual = 0.00037782, No Iterations 3
smoothSolver:  Solving for Uy, Initial residual = 0.0108016, Final residual = 0.000396558, No Iterations 3
GAMG:  Solving for p, Initial residual = 0.00722477, Final residual = 0.000556788, No Iterations 3
time step continuity errors : sum local = 5.8414e-06, global = -3.3448e-06, cumulative = -2.62711e-05
smoothSolver:  Solving for epsilon, Initial residual = 0.0268242, Final residual = 0.00224251, No Iterations 2
smoothSolver:  Solving for k, Initial residual = 0.0282318, Final residual = 0.000963193, No Iterations 3
ExecutionTime = 11.13 s  ClockTime = 11 s

Time = 48

Power coefficient["0"] ... 0.397755

Power coefficient["1"] ... 0.409074

Power coefficient["2"] ... 0.374463

smoothSolver:  Solving for Ux, Initial residual = 0.00896563, Final residual = 0.000369639, No Iterations 3
smoothSolver:  Solving for Uy, Initial residual = 0.010617, Final residual = 0.000390481, No Iterations 3
GAMG:  Solving for p, Initial residual = 0.00693901, Final residual = 0.000623108, No Iterations 3
time step continuity errors : sum local = 6.53028e-06, global = -4.67303e-06, cumulative = -3.09441e-05
smoothSolver:  Solving for epsilon, Initial residual = 0.0255715, Final residual = 0.00214336, No Iterations 2
smoothSolver:  Solving for k, Initial residual = 0.0269676, Final residual = 0.000922703, No Iterations 3
ExecutionTime = 11.36 s  ClockTime = 12 s

Time = 49

Power coefficient["0"] ... 0.397704

Power coefficient["1"] ... 0.409035

Power coefficient["2"] ... 0.374734

smoothSolver:  Solving for Ux, Initial residual = 0.00873541, Final residual = 0.000361353, No Iterations 3
smoothSolver:  Solving for Uy, Initial residual = 0.010432, Final residual = 0.000384497, No Iterations 3
GAMG:  Solving for p, Initial residual = 0.00673585, Final residual = 0.000614589, No Iterations 3
time step continuity errors : sum local = 6.41152e-06, global = -4.54186e-06, cumulative = -3.5486e-05
smoothSolver:  Solving for epsilon, Initial residual = 0.0244201, Final residual = 0.00205175, No Iterations 2
smoothSolver:  Solving for k, Initial residual = 0.0258007, Final residual = 0.000885124, No Iterations 3
ExecutionTime = 11.59 s  ClockTime = 12 s

Time = 50

Power coefficient["0"] ... 0.397652

Power coefficient["1"] ... 0.409008

Power coefficient["2"] ... 0.374989

smoothSolver:  Solving for Ux, Initial residual = 0.00851783, Final residual = 0.000353557, No Iterations 3
smoothSolver:  Solving for Uy, Initial residual = 0.0102533, Final residual = 0.000378702, No Iterations 3
GAMG:  Solving for p, Initial residual = 0.00648013, Final residual = 0.000453198, No Iterations 3
time step continuity errors : sum local = 4.70864e-06, global = -2.65977e-06, cumulative = -3.81458e-05
smoothSolver:  Solving for epsilon, Initial residual = 0.0233329, Final residual = 0.00196565, No Iterations 2
smoothSolver:  Solving for k, Initial residual = 0.0246995, Final residual = 0.000849846, No Iterations 3
ExecutionTime = 11.81 s  ClockTime = 12 s

Time = 51

Power coefficient["0"] ... 0.397596

Power coefficient["1"] ... 0.408989

Power coefficient["2"] ... 0.37523

smoothSolver:  Solving for Ux, Initial residual = 0.00832372, Final residual = 0.000346679, No Iterations 3
smoothSolver:  Solving for Uy, Initial residual = 0.0100565, Final residual = 0.000372182, No Iterations 3
GAMG:  Solving for p, Initial residual = 0.00598106, Final residual = 0.000587361, No Iterations 2
time step continuity errors : sum local = 6.12659e-06, global = 1.86249e-06, cumulative = -3.62833e-05
smoothSolver:  Solving for epsilon, Initial residual = 0.0223159, Final residual = 0.00188459, No Iterations 2
smoothSolver:  Solving for k, Initial residual = 0.0236671, Final residual = 0.000816573, No Iterations 3
ExecutionTime = 12.04 s  ClockTime = 12 s

Time = 52

Power coefficient["0"] ... 0.397533

Power coefficient["1"] ... 0.408968

Power coefficient["2"] ... 0.375463

smoothSolver:  Solving for Ux, Initial residual = 0.00814627, Final residual = 0.000340465, No Iterations 3
smoothSolver:  Solving for Uy, Initial residual = 0.00983977, Final residual = 0.000364936, No Iterations 3
GAMG:  Solving for p, Initial residual = 0.00583369, Final residual = 0.000522247, No Iterations 3
time step continuity errors : sum local = 5.44019e-06, global = -6.46005e-07, cumulative = -3.69293e-05
smoothSolver:  Solving for epsilon, Initial residual = 0.0213702, Final residual = 0.00180913, No Iterations 2
smoothSolver:  Solving for k, Initial residual = 0.0227043, Final residual = 0.000785562, No Iterations 3
ExecutionTime = 12.27 s  ClockTime = 13 s

Time = 53

Power coefficient["0"] ... 0.397261

Power coefficient["1"] ... 0.408957

Power coefficient["2"] ... 0.375693

smoothSolver:  Solving for Ux, Initial residual = 0.00799798, Final residual = 0.000335186, No Iterations 3
smoothSolver:  Solving for Uy, Initial residual = 0.00956085, Final residual = 0.00035541, No Iterations 3
GAMG:  Solving for p, Initial residual = 0.00547847, Final residual = 0.000514283, No Iterations 3
time step continuity errors : sum local = 5.36718e-06, global = -6.37061e-07, cumulative = -3.75663e-05
smoothSolver:  Solving for epsilon, Initial residual = 0.0204657, Final residual = 0.00173731, No Iterations 2
smoothSolver:  Solving for k, Initial residual = 0.0217852, Final residual = 0.000756105, No Iterations 3
ExecutionTime = 12.5 s  ClockTime = 13 s

Time = 54

Power coefficient["0"] ... 0.396983

Power coefficient["1"] ... 0.408949

Power coefficient["2"] ... 0.375917

smoothSolver:  Solving for Ux, Initial residual = 0.00784912, Final residual = 0.000329911, No Iterations 3
smoothSolver:  Solving for Uy, Initial residual = 0.0093174, Final residual = 0.000347043, No Iterations 3
GAMG:  Solving for p, Initial residual = 0.00524669, Final residual = 0.000363503, No Iterations 3
time step continuity errors : sum local = 3.81942e-06, global = -8.91057e-07, cumulative = -3.84574e-05
smoothSolver:  Solving for epsilon, Initial residual = 0.019633, Final residual = 0.00167074, No Iterations 2
smoothSolver:  Solving for k, Initial residual = 0.0209361, Final residual = 0.000728677, No Iterations 3
ExecutionTime = 12.73 s  ClockTime = 13 s

Time = 55

Power coefficient["0"] ... 0.396706

Power coefficient["1"] ... 0.408941

Power coefficient["2"] ... 0.376134

smoothSolver:  Solving for Ux, Initial residual = 0.00768792, Final residual = 0.000324227, No Iterations 3
smoothSolver:  Solving for Uy, Initial residual = 0.00913158, Final residual = 0.000340682, No Iterations 3
GAMG:  Solving for p, Initial residual = 0.00510932, Final residual = 0.000505412, No Iterations 2
time step continuity errors : sum local = 5.32671e-06, global = 9.75752e-08, cumulative = -3.83598e-05
smoothSolver:  Solving for epsilon, Initial residual = 0.0188479, Final residual = 0.00160802, No Iterations 2
smoothSolver:  Solving for k, Initial residual = 0.0201365, Final residual = 0.000702844, No Iterations 3
ExecutionTime = 12.95 s  ClockTime = 13 s

Time = 56

Power coefficient["0"] ... 0.396437

Power coefficient["1"] ... 0.408936

Power coefficient["2"] ... 0.376358

smoothSolver:  Solving for Ux, Initial residual = 0.0075255, Final residual = 0.00031851, No Iterations 3
smoothSolver:  Solving for Uy, Initial residual = 0.00896779, Final residual = 0.000335192, No Iterations 3
GAMG:  Solving for p, Initial residual = 0.00511115, Final residual = 0.000436366, No Iterations 3
time step continuity errors : sum local = 4.5966e-06, global = -3.16115e-06, cumulative = -4.1521e-05
smoothSolver:  Solving for epsilon, Initial residual = 0.0180919, Final residual = 0.001548, No Iterations 2
smoothSolver:  Solving for k, Initial residual = 0.0193673, Final residual = 0.000678123, No Iterations 3
ExecutionTime = 13.18 s  ClockTime = 13 s

Time = 57

Power coefficient["0"] ... 0.396173

Power coefficient["1"] ... 0.408936

Power coefficient["2"] ... 0.376571

smoothSolver:  Solving for Ux, Initial residual = 0.00735882, Final residual = 0.000312415, No Iterations 3
smoothSolver:  Solving for Uy, Initial residual = 0.00883342, Final residual = 0.000330697, No Iterations 3
GAMG:  Solving for p, Initial residual = 0.00491513, Final residual = 0.000433803, No Iterations 3
time step continuity errors : sum local = 4.55377e-06, global = -3.16641e-06, cumulative = -4.46874e-05
smoothSolver:  Solving for epsilon, Initial residual = 0.0173962, Final residual = 0.00149228, No Iterations 2
smoothSolver:  Solving for k, Initial residual = 0.0186575, Final residual = 0.000655143, No Iterations 3
ExecutionTime = 13.42 s  ClockTime = 14 s

Time = 58

Power coefficient["0"] ... 0.395901

Power coefficient["1"] ... 0.408934

Power coefficient["2"] ... 0.37677

smoothSolver:  Solving for Ux, Initial residual = 0.00720298, Final residual = 0.000306628, No Iterations 3
smoothSolver:  Solving for Uy, Initial residual = 0.00872113, Final residual = 0.00032696, No Iterations 3
GAMG:  Solving for p, Initial residual = 0.00462084, Final residual = 0.000307965, No Iterations 3
time step continuity errors : sum local = 3.22179e-06, global = -1.89733e-06, cumulative = -4.65847e-05
smoothSolver:  Solving for epsilon, Initial residual = 0.0167236, Final residual = 0.00143881, No Iterations 2
smoothSolver:  Solving for k, Initial residual = 0.0179724, Final residual = 0.000633116, No Iterations 3
ExecutionTime = 13.64 s  ClockTime = 14 s

Time = 59

Power coefficient["0"] ... 0.395625

Power coefficient["1"] ... 0.408902

Power coefficient["2"] ... 0.376955

smoothSolver:  Solving for Ux, Initial residual = 0.0070588, Final residual = 0.000301321, No Iterations 3
smoothSolver:  Solving for Uy, Initial residual = 0.00859534, Final residual = 0.000322738, No Iterations 3
GAMG:  Solving for p, Initial residual = 0.00437847, Final residual = 0.000418151, No Iterations 2
time step continuity errors : sum local = 4.36827e-06, global = 8.81656e-07, cumulative = -4.57031e-05
smoothSolver:  Solving for epsilon, Initial residual = 0.0161057, Final residual = 0.00138915, No Iterations 2
smoothSolver:  Solving for k, Initial residual = 0.0173408, Final residual = 0.000612646, No Iterations 3
ExecutionTime = 13.86 s  ClockTime = 14 s

Time = 60

Power coefficient["0"] ... 0.395407

Power coefficient["1"] ... 0.408893

Power coefficient["2"] ... 0.377131

smoothSolver:  Solving for Ux, Initial residual = 0.00692595, Final residual = 0.000296577, No Iterations 3
smoothSolver:  Solving for Uy, Initial residual = 0.008443, Final residual = 0.000317598, No Iterations 3
GAMG:  Solving for p, Initial residual = 0.00442549, Final residual = 0.000337475, No Iterations 3
time step continuity errors : sum local = 3.52708e-06, global = -4.82086e-07, cumulative = -4.61851e-05
smoothSolver:  Solving for epsilon, Initial residual = 0.0155202, Final residual = 0.0013421, No Iterations 2
smoothSolver:  Solving for k, Initial residual = 0.0167415, Final residual = 0.000593249, No Iterations 3
ExecutionTime = 14.09 s  ClockTime = 14 s

Time = 61

Power coefficient["0"] ... 0.395227

Power coefficient["1"] ... 0.408897

Power coefficient["2"] ... 0.377286

smoothSolver:  Solving for Ux, Initial residual = 0.00680641, Final residual = 0.000292224, No Iterations 3
smoothSolver:  Solving for Uy, Initial residual = 0.00824803, Final residual = 0.000310885, No Iterations 3
GAMG:  Solving for p, Initial residual = 0.00438851, Final residual = 0.00034287, No Iterations 3
time step continuity errors : sum local = 3.60039e-06, global = -5.1861e-07, cumulative = -4.67037e-05
smoothSolver:  Solving for epsilon, Initial residual = 0.0149511, Final residual = 0.00129674, No Iterations 2
smoothSolver:  Solving for k, Initial residual = 0.0161619, Final residual = 0.000574618, No Iterations 3
ExecutionTime = 14.31 s  ClockTime = 15 s

Time = 62

Power coefficient["0"] ... 0.395052

Power coefficient["1"] ... 0.408902

Power coefficient["2"] ... 0.377427

smoothSolver:  Solving for Ux, Initial residual = 0.00669137, Final residual = 0.000288057, No Iterations 3
smoothSolver:  Solving for Uy, Initial residual = 0.00805512, Final residual = 0.000304213, No Iterations 3
GAMG:  Solving for p, Initial residual = 0.00419639, Final residual = 0.00041166, No Iterations 2
time step continuity errors : sum local = 4.34466e-06, global = 1.45618e-06, cumulative = -4.52476e-05
smoothSolver:  Solving for epsilon, Initial residual = 0.0144282, Final residual = 0.00125464, No Iterations 2
smoothSolver:  Solving for k, Initial residual = 0.0156268, Final residual = 0.000557262, No Iterations 3
ExecutionTime = 14.53 s  ClockTime = 15 s

Time = 63

Power coefficient["0"] ... 0.394881

Power coefficient["1"] ... 0.408906

Power coefficient["2"] ... 0.377562

smoothSolver:  Solving for Ux, Initial residual = 0.00656979, Final residual = 0.00028368, No Iterations 3
smoothSolver:  Solving for Uy, Initial residual = 0.00790884, Final residual = 0.000299203, No Iterations 3
GAMG:  Solving for p, Initial residual = 0.00407985, Final residual = 0.000405431, No Iterations 2
time step continuity errors : sum local = 4.28361e-06, global = 6.656e-07, cumulative = -4.4582e-05
smoothSolver:  Solving for epsilon, Initial residual = 0.0139311, Final residual = 0.00121466, No Iterations 2
smoothSolver:  Solving for k, Initial residual = 0.0151185, Final residual = 0.000540795, No Iterations 3
ExecutionTime = 14.76 s  ClockTime = 15 s

Time = 64

Power coefficient["0"] ... 0.394708

Power coefficient["1"] ... 0.408914

Power coefficient["2"] ... 0.377731

smoothSolver:  Solving for Ux, Initial residual = 0.00645198, Final residual = 0.000279399, No Iterations 3
smoothSolver:  Solving for Uy, Initial residual = 0.00777438, Final residual = 0.000294581, No Iterations 3
GAMG:  Solving for p, Initial residual = 0.0041578, Final residual = 0.000224345, No Iterations 3
time step continuity errors : sum local = 2.37207e-06, global = -9.72587e-07, cumulative = -4.55546e-05
smoothSolver:  Solving for epsilon, Initial residual = 0.0134452, Final residual = 0.00117589, No Iterations 2
smoothSolver:  Solving for k, Initial residual = 0.0146234, Final residual = 0.000524875, No Iterations 3
ExecutionTime = 14.98 s  ClockTime = 15 s

Time = 65

Power coefficient["0"] ... 0.394535

Power coefficient["1"] ... 0.408927

Power coefficient["2"] ... 0.377906

smoothSolver:  Solving for Ux, Initial residual = 0.00633503, Final residual = 0.000275021, No Iterations 3
smoothSolver:  Solving for Uy, Initial residual = 0.00766061, Final residual = 0.00029064, No Iterations 3
GAMG:  Solving for p, Initial residual = 0.00389535, Final residual = 0.000383157, No Iterations 2
time step continuity errors : sum local = 4.05149e-06, global = -2.2359e-09, cumulative = -4.55568e-05
smoothSolver:  Solving for epsilon, Initial residual = 0.0129994, Final residual = 0.00113991, No Iterations 2
smoothSolver:  Solving for k, Initial residual = 0.0141674, Final residual = 0.000510064, No Iterations 3
ExecutionTime = 15.21 s  ClockTime = 15 s

Time = 66

Power coefficient["0"] ... 0.394363

Power coefficient["1"] ... 0.408908

Power coefficient["2"] ... 0.378079

smoothSolver:  Solving for Ux, Initial residual = 0.00622063, Final residual = 0.000270801, No Iterations 3
smoothSolver:  Solving for Uy, Initial residual = 0.00754989, Final residual = 0.000286859, No Iterations 3
GAMG:  Solving for p, Initial residual = 0.00382277, Final residual = 0.000285231, No Iterations 3
time step continuity errors : sum local = 3.01498e-06, global = -1.52083e-06, cumulative = -4.70776e-05
smoothSolver:  Solving for epsilon, Initial residual = 0.0125608, Final residual = 0.00110487, No Iterations 2
smoothSolver:  Solving for k, Initial residual = 0.0137204, Final residual = 0.000495717, No Iterations 3
ExecutionTime = 15.44 s  ClockTime = 16 s

Time = 67

Power coefficient["0"] ... 0.394193

Power coefficient["1"] ... 0.408884

Power coefficient["2"] ... 0.37826

smoothSolver:  Solving for Ux, Initial residual = 0.00611228, Final residual = 0.000266659, No Iterations 3
smoothSolver:  Solving for Uy, Initial residual = 0.00747218, Final residual = 0.000284175, No Iterations 3
GAMG:  Solving for p, Initial residual = 0.00374578, Final residual = 0.000353863, No Iterations 2
time step continuity errors : sum local = 3.73655e-06, global = 2.67547e-08, cumulative = -4.70509e-05
smoothSolver:  Solving for epsilon, Initial residual = 0.0121599, Final residual = 0.0010724, No Iterations 2
smoothSolver:  Solving for k, Initial residual = 0.0133095, Final residual = 0.000482368, No Iterations 3
ExecutionTime = 15.66 s  ClockTime = 16 s

Time = 68

Power coefficient["0"] ... 0.394024

Power coefficient["1"] ... 0.408864

Power coefficient["2"] ... 0.378433

smoothSolver:  Solving for Ux, Initial residual = 0.00600644, Final residual = 0.00026276, No Iterations 3
smoothSolver:  Solving for Uy, Initial residual = 0.00736422, Final residual = 0.000280478, No Iterations 3
GAMG:  Solving for p, Initial residual = 0.00373083, Final residual = 0.000372631, No Iterations 2
time step continuity errors : sum local = 3.93443e-06, global = 4.21394e-07, cumulative = -4.66295e-05
smoothSolver:  Solving for epsilon, Initial residual = 0.0117776, Final residual = 0.00104146, No Iterations 2
smoothSolver:  Solving for k, Initial residual = 0.0129178, Final residual = 0.000469662, No Iterations 3
ExecutionTime = 15.89 s  ClockTime = 16 s

Time = 69

Power coefficient["0"] ... 0.393856

Power coefficient["1"] ... 0.408846

Power coefficient["2"] ... 0.378588

smoothSolver:  Solving for Ux, Initial residual = 0.00590505, Final residual = 0.000258999, No Iterations 3
smoothSolver:  Solving for Uy, Initial residual = 0.00724967, Final residual = 0.000276528, No Iterations 3
GAMG:  Solving for p, Initial residual = 0.00382032, Final residual = 0.00019474, No Iterations 3
time step continuity errors : sum local = 2.05725e-06, global = -1.68526e-07, cumulative = -4.6798e-05
smoothSolver:  Solving for epsilon, Initial residual = 0.011399, Final residual = 0.00101119, No Iterations 2
smoothSolver:  Solving for k, Initial residual = 0.0125323, Final residual = 0.00045728, No Iterations 3
ExecutionTime = 16.12 s  ClockTime = 16 s

Time = 70

Power coefficient["0"] ... 0.393689

Power coefficient["1"] ... 0.40883

Power coefficient["2"] ... 0.378736

smoothSolver:  Solving for Ux, Initial residual = 0.0058105, Final residual = 0.0002554, No Iterations 3
smoothSolver:  Solving for Uy, Initial residual = 0.00712186, Final residual = 0.000272083, No Iterations 3
GAMG:  Solving for p, Initial residual = 0.00349253, Final residual = 0.000318543, No Iterations 2
time step continuity errors : sum local = 3.37222e-06, global = 1.14196e-06, cumulative = -4.5656e-05
smoothSolver:  Solving for epsilon, Initial residual = 0.0110539, Final residual = 0.000983171, No Iterations 2
smoothSolver:  Solving for k, Initial residual = 0.0121787, Final residual = 0.000445762, No Iterations 3
ExecutionTime = 16.34 s  ClockTime = 17 s

Time = 71

Power coefficient["0"] ... 0.393522

Power coefficient["1"] ... 0.408816

Power coefficient["2"] ... 0.378877

smoothSolver:  Solving for Ux, Initial residual = 0.00571891, Final residual = 0.000251991, No Iterations 3
smoothSolver:  Solving for Uy, Initial residual = 0.00700414, Final residual = 0.000268012, No Iterations 3
GAMG:  Solving for p, Initial residual = 0.00343987, Final residual = 0.000323109, No Iterations 2
time step continuity errors : sum local = 3.42532e-06, global = 1.23691e-06, cumulative = -4.44191e-05
smoothSolver:  Solving for epsilon, Initial residual = 0.010724, Final residual = 0.000956423, No Iterations 2
smoothSolver:  Solving for k, Initial residual = 0.0118404, Final residual = 0.000434765, No Iterations 3
ExecutionTime = 16.56 s  ClockTime = 17 s

Time = 72

Power coefficient["0"] ... 0.393352

Power coefficient["1"] ... 0.408801

Power coefficient["2"] ... 0.379011

smoothSolver:  Solving for Ux, Initial residual = 0.00563001, Final residual = 0.00024868, No Iterations 3
smoothSolver:  Solving for Uy, Initial residual = 0.00688717, Final residual = 0.000263964, No Iterations 3
GAMG:  Solving for p, Initial residual = 0.00345188, Final residual = 0.000336287, No Iterations 2
time step continuity errors : sum local = 3.57123e-06, global = 1.16852e-06, cumulative = -4.32506e-05
smoothSolver:  Solving for epsilon, Initial residual = 0.0103951, Final residual = 0.000930122, No Iterations 2
smoothSolver:  Solving for k, Initial residual = 0.0115056, Final residual = 0.000424009, No Iterations 3
ExecutionTime = 16.78 s  ClockTime = 17 s

Time = 73

Power coefficient["0"] ... 0.393184

Power coefficient["1"] ... 0.408786

Power coefficient["2"] ... 0.37914

smoothSolver:  Solving for Ux, Initial residual = 0.00554317, Final residual = 0.000245431, No Iterations 3
smoothSolver:  Solving for Uy, Initial residual = 0.00677619, Final residual = 0.000260099, No Iterations 3
GAMG:  Solving for p, Initial residual = 0.00341306, Final residual = 0.000173899, No Iterations 3
time step continuity errors : sum local = 1.84996e-06, global = -8.05325e-08, cumulative = -4.33311e-05
smoothSolver:  Solving for epsilon, Initial residual = 0.010096, Final residual = 0.000905811, No Iterations 2
smoothSolver:  Solving for k, Initial residual = 0.0111985, Final residual = 0.000414006, No Iterations 3
ExecutionTime = 17.01 s  ClockTime = 17 s

Time = 74

Power coefficient["0"] ... 0.393018

Power coefficient["1"] ... 0.408769

Power coefficient["2"] ... 0.379262

smoothSolver:  Solving for Ux, Initial residual = 0.00546062, Final residual = 0.000242251, No Iterations 3
smoothSolver:  Solving for Uy, Initial residual = 0.00667793, Final residual = 0.000256625, No Iterations 3
GAMG:  Solving for p, Initial residual = 0.00320337, Final residual = 0.000277806, No Iterations 2
time step continuity errors : sum local = 2.96246e-06, global = 1.81563e-07, cumulative = -4.31496e-05
smoothSolver:  Solving for epsilon, Initial residual = 0.00980974, Final residual = 0.000882545, No Iterations 2
smoothSolver:  Solving for k, Initial residual = 0.0109042, Final residual = 0.000404441, No Iterations 3
ExecutionTime = 17.24 s  ClockTime = 17 s

Time = 75

Power coefficient["0"] ... 0.392854

Power coefficient["1"] ... 0.408752

Power coefficient["2"] ... 0.379321

smoothSolver:  Solving for Ux, Initial residual = 0.00537677, Final residual = 0.00023911, No Iterations 3
smoothSolver:  Solving for Uy, Initial residual = 0.00658905, Final residual = 0.000253527, No Iterations 3
GAMG:  Solving for p, Initial residual = 0.00325273, Final residual = 0.000302738, No Iterations 2
time step continuity errors : sum local = 3.23012e-06, global = -2.18476e-07, cumulative = -4.33681e-05
smoothSolver:  Solving for epsilon, Initial residual = 0.00952263, Final residual = 0.000859559, No Iterations 2
smoothSolver:  Solving for k, Initial residual = 0.0106111, Final residual = 0.000395054, No Iterations 3
ExecutionTime = 17.46 s  ClockTime = 18 s

Time = 76

Power coefficient["0"] ... 0.39269

Power coefficient["1"] ... 0.408733

Power coefficient["2"] ... 0.379332

smoothSolver:  Solving for Ux, Initial residual = 0.00529204, Final residual = 0.000235911, No Iterations 3
smoothSolver:  Solving for Uy, Initial residual = 0.00650294, Final residual = 0.000250524, No Iterations 3
GAMG:  Solving for p, Initial residual = 0.00329866, Final residual = 0.000205401, No Iterations 3
time step continuity errors : sum local = 2.19168e-06, global = -7.84907e-07, cumulative = -4.4153e-05
smoothSolver:  Solving for epsilon, Initial residual = 0.0092633, Final residual = 0.000838388, No Iterations 2
smoothSolver:  Solving for k, Initial residual = 0.0103435, Final residual = 0.000386341, No Iterations 3
ExecutionTime = 17.68 s  ClockTime = 18 s

Time = 77

Power coefficient["0"] ... 0.392528

Power coefficient["1"] ... 0.408712

Power coefficient["2"] ... 0.379341

smoothSolver:  Solving for Ux, Initial residual = 0.00520893, Final residual = 0.000232608, No Iterations 3
smoothSolver:  Solving for Uy, Initial residual = 0.00643805, Final residual = 0.000248258, No Iterations 3
GAMG:  Solving for p, Initial residual = 0.00310169, Final residual = 0.000282417, No Iterations 2
time step continuity errors : sum local = 3.00993e-06, global = -2.49542e-07, cumulative = -4.44025e-05
smoothSolver:  Solving for epsilon, Initial residual = 0.00900743, Final residual = 0.000817574, No Iterations 2
smoothSolver:  Solving for k, Initial residual = 0.010081, Final residual = 0.000377814, No Iterations 3
ExecutionTime = 17.9 s  ClockTime = 18 s

Time = 78

Power coefficient["0"] ... 0.392382

Power coefficient["1"] ... 0.40869

Power coefficient["2"] ... 0.379347

smoothSolver:  Solving for Ux, Initial residual = 0.00513024, Final residual = 0.000229622, No Iterations 3
smoothSolver:  Solving for Uy, Initial residual = 0.00635613, Final residual = 0.000245418, No Iterations 3
GAMG:  Solving for p, Initial residual = 0.00299904, Final residual = 0.000263236, No Iterations 2
time step continuity errors : sum local = 2.80553e-06, global = 5.85288e-08, cumulative = -4.4344e-05
smoothSolver:  Solving for epsilon, Initial residual = 0.00876324, Final residual = 0.000797996, No Iterations 2
smoothSolver:  Solving for k, Initial residual = 0.00983011, Final residual = 0.000369777, No Iterations 3
ExecutionTime = 18.12 s  ClockTime = 18 s

Time = 79

Power coefficient["0"] ... 0.392249

Power coefficient["1"] ... 0.408667

Power coefficient["2"] ... 0.379349

smoothSolver:  Solving for Ux, Initial residual = 0.0050557, Final residual = 0.000226791, No Iterations 3
smoothSolver:  Solving for Uy, Initial residual = 0.00627339, Final residual = 0.000242536, No Iterations 3
GAMG:  Solving for p, Initial residual = 0.00301125, Final residual = 0.000272997, No Iterations 2
time step continuity errors : sum local = 2.91087e-06, global = 5.30869e-07, cumulative = -4.38131e-05
smoothSolver:  Solving for epsilon, Initial residual = 0.00853611, Final residual = 0.000779417, No Iterations 2
smoothSolver:  Solving for k, Initial residual = 0.00959525, Final residual = 0.000362116, No Iterations 3
ExecutionTime = 18.34 s  ClockTime = 19 s

Time = 80

Power coefficient["0"] ... 0.392121

Power coefficient["1"] ... 0.408641

Power coefficient["2"] ... 0.379349

smoothSolver:  Solving for Ux, Initial residual = 0.00498416, Final residual = 0.000224033, No Iterations 3
smoothSolver:  Solving for Uy, Initial residual = 0.00618876, Final residual = 0.000239581, No Iterations 3
GAMG:  Solving for p, Initial residual = 0.00307372, Final residual = 0.000286012, No Iterations 2
time step continuity errors : sum local = 3.05252e-06, global = 8.9664e-07, cumulative = -4.29165e-05
smoothSolver:  Solving for epsilon, Initial residual = 0.00831111, Final residual = 0.000761085, No Iterations 2
smoothSolver:  Solving for k, Initial residual = 0.00936385, Final residual = 0.000354599, No Iterations 3
ExecutionTime = 18.56 s  ClockTime = 19 s

Time = 81

Power coefficient["0"] ... 0.391995

Power coefficient["1"] ... 0.408614

Power coefficient["2"] ... 0.379347

smoothSolver:  Solving for Ux, Initial residual = 0.00491453, Final residual = 0.000221318, No Iterations 3
smoothSolver:  Solving for Uy, Initial residual = 0.00610133, Final residual = 0.00023652, No Iterations 3
GAMG:  Solving for p, Initial residual = 0.00303585, Final residual = 0.000290451, No Iterations 2
time step continuity errors : sum local = 3.10456e-06, global = 1.00858e-06, cumulative = -4.19079e-05
smoothSolver:  Solving for epsilon, Initial residual = 0.00809616, Final residual = 0.000743832, No Iterations 2
smoothSolver:  Solving for k, Initial residual = 0.00914219, Final residual = 0.000347517, No Iterations 3
ExecutionTime = 18.77 s  ClockTime = 19 s

Time = 82

Power coefficient["0"] ... 0.391872

Power coefficient["1"] ... 0.408584

Power coefficient["2"] ... 0.379342

smoothSolver:  Solving for Ux, Initial residual = 0.00484692, Final residual = 0.000218675, No Iterations 3
smoothSolver:  Solving for Uy, Initial residual = 0.00601294, Final residual = 0.00023342, No Iterations 3
GAMG:  Solving for p, Initial residual = 0.00290878, Final residual = 0.000264978, No Iterations 2
time step continuity errors : sum local = 2.8377e-06, global = 8.92277e-07, cumulative = -4.10156e-05
smoothSolver:  Solving for epsilon, Initial residual = 0.0078968, Final residual = 0.000727445, No Iterations 2
smoothSolver:  Solving for k, Initial residual = 0.00893498, Final residual = 0.000340761, No Iterations 3
ExecutionTime = 18.99 s  ClockTime = 19 s

Time = 83

Power coefficient["0"] ... 0.391752

Power coefficient["1"] ... 0.408552

Power coefficient["2"] ... 0.379333

smoothSolver:  Solving for Ux, Initial residual = 0.00478175, Final residual = 0.000216136, No Iterations 3
smoothSolver:  Solving for Uy, Initial residual = 0.00592755, Final residual = 0.000230417, No Iterations 3
GAMG:  Solving for p, Initial residual = 0.00281464, Final residual = 0.000235365, No Iterations 2
time step continuity errors : sum local = 2.52536e-06, global = 6.73378e-07, cumulative = -4.03422e-05
smoothSolver:  Solving for epsilon, Initial residual = 0.00769201, Final residual = 0.00071101, No Iterations 2
smoothSolver:  Solving for k, Initial residual = 0.00872457, Final residual = 0.000334052, No Iterations 3
ExecutionTime = 19.21 s  ClockTime = 19 s

Time = 84

Power coefficient["0"] ... 0.391637

Power coefficient["1"] ... 0.408518

Power coefficient["2"] ... 0.379323

smoothSolver:  Solving for Ux, Initial residual = 0.00471765, Final residual = 0.000213673, No Iterations 3
smoothSolver:  Solving for Uy, Initial residual = 0.00584938, Final residual = 0.000227651, No Iterations 3
GAMG:  Solving for p, Initial residual = 0.00275015, Final residual = 0.00023145, No Iterations 2
time step continuity errors : sum local = 2.48681e-06, global = 3.84243e-07, cumulative = -3.9958e-05
smoothSolver:  Solving for epsilon, Initial residual = 0.00750967, Final residual = 0.000695967, No Iterations 2
smoothSolver:  Solving for k, Initial residual = 0.00853451, Final residual = 0.000327845, No Iterations 3
ExecutionTime = 19.43 s  ClockTime = 20 s

Time = 85

Power coefficient["0"] ... 0.391524

Power coefficient["1"] ... 0.408483

Power coefficient["2"] ... 0.37931

smoothSolver:  Solving for Ux, Initial residual = 0.00465451, Final residual = 0.000211239, No Iterations 3
smoothSolver:  Solving for Uy, Initial residual = 0.00577766, Final residual = 0.000225122, No Iterations 3
GAMG:  Solving for p, Initial residual = 0.00277669, Final residual = 0.000248329, No Iterations 2
time step continuity errors : sum local = 2.67043e-06, global = 7.58735e-08, cumulative = -3.98821e-05
smoothSolver:  Solving for epsilon, Initial residual = 0.00733361, Final residual = 0.000681485, No Iterations 2
smoothSolver:  Solving for k, Initial residual = 0.00835088, Final residual = 0.000321866, No Iterations 3
ExecutionTime = 19.65 s  ClockTime = 20 s

Time = 86

Power coefficient["0"] ... 0.391415

Power coefficient["1"] ... 0.408446

Power coefficient["2"] ... 0.379295

smoothSolver:  Solving for Ux, Initial residual = 0.00459133, Final residual = 0.000208781, No Iterations 3
smoothSolver:  Solving for Uy, Initial residual = 0.00570895, Final residual = 0.000222708, No Iterations 3
GAMG:  Solving for p, Initial residual = 0.00283199, Final residual = 0.000273708, No Iterations 2
time step continuity errors : sum local = 2.9449e-06, global = -1.26006e-07, cumulative = -4.00081e-05
smoothSolver:  Solving for epsilon, Initial residual = 0.00715129, Final residual = 0.000666867, No Iterations 2
smoothSolver:  Solving for k, Initial residual = 0.00816331, Final residual = 0.000315883, No Iterations 3
ExecutionTime = 19.87 s  ClockTime = 20 s

Time = 87

Power coefficient["0"] ... 0.391309

Power coefficient["1"] ... 0.408408

Power coefficient["2"] ... 0.379279

smoothSolver:  Solving for Ux, Initial residual = 0.00452844, Final residual = 0.00020631, No Iterations 3
smoothSolver:  Solving for Uy, Initial residual = 0.00564324, Final residual = 0.0002204, No Iterations 3
GAMG:  Solving for p, Initial residual = 0.00279222, Final residual = 0.000274077, No Iterations 2
time step continuity errors : sum local = 2.94974e-06, global = -2.01086e-07, cumulative = -4.02092e-05
smoothSolver:  Solving for epsilon, Initial residual = 0.00699023, Final residual = 0.000653567, No Iterations 2
smoothSolver:  Solving for k, Initial residual = 0.00799455, Final residual = 0.000310365, No Iterations 3
ExecutionTime = 20.09 s  ClockTime = 20 s

Time = 88

Power coefficient["0"] ... 0.391208

Power coefficient["1"] ... 0.408369

Power coefficient["2"] ... 0.379261

smoothSolver:  Solving for Ux, Initial residual = 0.00446806, Final residual = 0.000203897, No Iterations 3
smoothSolver:  Solving for Uy, Initial residual = 0.00558174, Final residual = 0.000218253, No Iterations 3
GAMG:  Solving for p, Initial residual = 0.00270176, Final residual = 0.000243465, No Iterations 2
time step continuity errors : sum local = 2.62066e-06, global = -1.63538e-07, cumulative = -4.03728e-05
smoothSolver:  Solving for epsilon, Initial residual = 0.00683441, Final residual = 0.000640732, No Iterations 2
smoothSolver:  Solving for k, Initial residual = 0.00783126, Final residual = 0.000305047, No Iterations 3
ExecutionTime = 20.31 s  ClockTime = 21 s

Time = 89

Power coefficient["0"] ... 0.391109

Power coefficient["1"] ... 0.408329

Power coefficient["2"] ... 0.379242

smoothSolver:  Solving for Ux, Initial residual = 0.00441041, Final residual = 0.00020159, No Iterations 3
smoothSolver:  Solving for Uy, Initial residual = 0.00552422, Final residual = 0.000216237, No Iterations 3
GAMG:  Solving for p, Initial residual = 0.00262166, Final residual = 0.000216676, No Iterations 2
time step continuity errors : sum local = 2.33267e-06, global = -6.37042e-08, cumulative = -4.04365e-05
smoothSolver:  Solving for epsilon, Initial residual = 0.00667168, Final residual = 0.000627689, No Iterations 2
smoothSolver:  Solving for k, Initial residual = 0.00766324, Final residual = 0.000299699, No Iterations 3
ExecutionTime = 20.53 s  ClockTime = 21 s

Time = 90

Power coefficient["0"] ... 0.391014

Power coefficient["1"] ... 0.408288

Power coefficient["2"] ... 0.379221

smoothSolver:  Solving for Ux, Initial residual = 0.00435451, Final residual = 0.000199383, No Iterations 3
smoothSolver:  Solving for Uy, Initial residual = 0.00546718, Final residual = 0.000214226, No Iterations 3
GAMG:  Solving for p, Initial residual = 0.00255351, Final residual = 0.00020414, No Iterations 2
time step continuity errors : sum local = 2.19848e-06, global = 1.38315e-07, cumulative = -4.02981e-05
smoothSolver:  Solving for epsilon, Initial residual = 0.00652906, Final residual = 0.000615856, No Iterations 2
smoothSolver:  Solving for k, Initial residual = 0.00751285, Final residual = 0.000294779, No Iterations 3
ExecutionTime = 20.77 s  ClockTime = 21 s

Time = 91

Power coefficient["0"] ... 0.390922

Power coefficient["1"] ... 0.408248

Power coefficient["2"] ... 0.379199

smoothSolver:  Solving for Ux, Initial residual = 0.00429999, Final residual = 0.000197239, No Iterations 3
smoothSolver:  Solving for Uy, Initial residual = 0.0054074, Final residual = 0.000212126, No Iterations 3
GAMG:  Solving for p, Initial residual = 0.00256161, Final residual = 0.000202063, No Iterations 2
time step continuity errors : sum local = 2.17732e-06, global = 3.74451e-07, cumulative = -3.99237e-05
smoothSolver:  Solving for epsilon, Initial residual = 0.00639085, Final residual = 0.000604424, No Iterations 2
smoothSolver:  Solving for k, Initial residual = 0.00736704, Final residual = 0.000290026, No Iterations 3
ExecutionTime = 20.98 s  ClockTime = 21 s

Time = 92

Power coefficient["0"] ... 0.390831

Power coefficient["1"] ... 0.408207

Power coefficient["2"] ... 0.379177

smoothSolver:  Solving for Ux, Initial residual = 0.00424594, Final residual = 0.00019511, No Iterations 3
smoothSolver:  Solving for Uy, Initial residual = 0.00534441, Final residual = 0.000209917, No Iterations 3
GAMG:  Solving for p, Initial residual = 0.00261166, Final residual = 0.000210145, No Iterations 2
time step continuity errors : sum local = 2.26618e-06, global = 5.6839e-07, cumulative = -3.93553e-05
smoothSolver:  Solving for epsilon, Initial residual = 0.00624496, Final residual = 0.000592731, No Iterations 2
smoothSolver:  Solving for k, Initial residual = 0.00721595, Final residual = 0.000285225, No Iterations 3
ExecutionTime = 21.2 s  ClockTime = 21 s

Time = 93

Power coefficient["0"] ... 0.39074

Power coefficient["1"] ... 0.408167

Power coefficient["2"] ... 0.379154

smoothSolver:  Solving for Ux, Initial residual = 0.00419255, Final residual = 0.000192999, No Iterations 3
smoothSolver:  Solving for Uy, Initial residual = 0.00527867, Final residual = 0.000207607, No Iterations 3
GAMG:  Solving for p, Initial residual = 0.00258822, Final residual = 0.000224445, No Iterations 2
time step continuity errors : sum local = 2.4229e-06, global = 6.71105e-07, cumulative = -3.86842e-05
smoothSolver:  Solving for epsilon, Initial residual = 0.00611802, Final residual = 0.000582183, No Iterations 2
smoothSolver:  Solving for k, Initial residual = 0.00708162, Final residual = 0.000280822, No Iterations 3
ExecutionTime = 21.43 s  ClockTime = 22 s

Time = 94

Power coefficient["0"] ... 0.390652

Power coefficient["1"] ... 0.408126

Power coefficient["2"] ... 0.37913

smoothSolver:  Solving for Ux, Initial residual = 0.00414174, Final residual = 0.000190964, No Iterations 3
smoothSolver:  Solving for Uy, Initial residual = 0.00521208, Final residual = 0.000205275, No Iterations 3
GAMG:  Solving for p, Initial residual = 0.00252635, Final residual = 0.000219293, No Iterations 2
time step continuity errors : sum local = 2.37018e-06, global = 6.64209e-07, cumulative = -3.802e-05
smoothSolver:  Solving for epsilon, Initial residual = 0.00599484, Final residual = 0.00057197, No Iterations 2
[...]
GAMG:  Solving for p, Initial residual = 1.64199e-05, Final residual = 7.87199e-07, No Iterations 3
time step continuity errors : sum local = 8.57599e-09, global = -4.34362e-09, cumulative = -2.56678e-05
smoothSolver:  Solving for epsilon, Initial residual = 4.45383e-05, Final residual = 2.06166e-06, No Iterations 3
smoothSolver:  Solving for k, Initial residual = 5.71598e-05, Final residual = 3.22612e-06, No Iterations 3
ExecutionTime = 107.93 s  ClockTime = 108 s

Time = 472

Power coefficient["0"] ... 0.389162

Power coefficient["1"] ... 0.407676

Power coefficient["2"] ... 0.380241

smoothSolver:  Solving for Ux, Initial residual = 5.54408e-05, Final residual = 3.52675e-06, No Iterations 3
smoothSolver:  Solving for Uy, Initial residual = 0.000125613, Final residual = 4.69297e-06, No Iterations 3
GAMG:  Solving for p, Initial residual = 1.62358e-05, Final residual = 7.76832e-07, No Iterations 3
time step continuity errors : sum local = 8.46362e-09, global = -4.19526e-09, cumulative = -2.5672e-05
smoothSolver:  Solving for epsilon, Initial residual = 4.4089e-05, Final residual = 2.04113e-06, No Iterations 3
smoothSolver:  Solving for k, Initial residual = 5.65819e-05, Final residual = 3.19393e-06, No Iterations 3
ExecutionTime = 108.17 s  ClockTime = 108 s

Time = 473

Power coefficient["0"] ... 0.389162

Power coefficient["1"] ... 0.407676

Power coefficient["2"] ... 0.380241

smoothSolver:  Solving for Ux, Initial residual = 5.48995e-05, Final residual = 3.4929e-06, No Iterations 3
smoothSolver:  Solving for Uy, Initial residual = 0.000124317, Final residual = 4.64472e-06, No Iterations 3
GAMG:  Solving for p, Initial residual = 1.60817e-05, Final residual = 7.74924e-07, No Iterations 3
time step continuity errors : sum local = 8.44338e-09, global = -4.10399e-09, cumulative = -2.56761e-05
smoothSolver:  Solving for epsilon, Initial residual = 4.36446e-05, Final residual = 2.02081e-06, No Iterations 3
smoothSolver:  Solving for k, Initial residual = 5.60103e-05, Final residual = 3.16209e-06, No Iterations 3
ExecutionTime = 108.4 s  ClockTime = 109 s

Time = 474

Power coefficient["0"] ... 0.389162

Power coefficient["1"] ... 0.407677

Power coefficient["2"] ... 0.380242

smoothSolver:  Solving for Ux, Initial residual = 5.43638e-05, Final residual = 3.4594e-06, No Iterations 3
smoothSolver:  Solving for Uy, Initial residual = 0.000123036, Final residual = 4.59703e-06, No Iterations 3
GAMG:  Solving for p, Initial residual = 1.59149e-05, Final residual = 7.76025e-07, No Iterations 3
time step continuity errors : sum local = 8.45593e-09, global = -4.09506e-09, cumulative = -2.56802e-05
smoothSolver:  Solving for epsilon, Initial residual = 4.32052e-05, Final residual = 2.00071e-06, No Iterations 3
smoothSolver:  Solving for k, Initial residual = 5.5445e-05, Final residual = 3.13059e-06, No Iterations 3
ExecutionTime = 108.63 s  ClockTime = 109 s

Time = 475

Power coefficient["0"] ... 0.389162

Power coefficient["1"] ... 0.407677

Power coefficient["2"] ... 0.380242

smoothSolver:  Solving for Ux, Initial residual = 5.38337e-05, Final residual = 3.42622e-06, No Iterations 3
smoothSolver:  Solving for Uy, Initial residual = 0.00012178, Final residual = 4.55034e-06, No Iterations 3
GAMG:  Solving for p, Initial residual = 1.57148e-05, Final residual = 7.72844e-07, No Iterations 3
time step continuity errors : sum local = 8.42181e-09, global = -4.12418e-09, cumulative = -2.56843e-05
smoothSolver:  Solving for epsilon, Initial residual = 4.27705e-05, Final residual = 1.98082e-06, No Iterations 3
smoothSolver:  Solving for k, Initial residual = 5.48859e-05, Final residual = 3.09944e-06, No Iterations 3
ExecutionTime = 108.86 s  ClockTime = 109 s

Time = 476

Power coefficient["0"] ... 0.389162

Power coefficient["1"] ... 0.407677

Power coefficient["2"] ... 0.380243

smoothSolver:  Solving for Ux, Initial residual = 5.33093e-05, Final residual = 3.39335e-06, No Iterations 3
smoothSolver:  Solving for Uy, Initial residual = 0.000120547, Final residual = 4.50467e-06, No Iterations 3
GAMG:  Solving for p, Initial residual = 1.54983e-05, Final residual = 7.62534e-07, No Iterations 3
time step continuity errors : sum local = 8.31001e-09, global = -4.12268e-09, cumulative = -2.56885e-05
smoothSolver:  Solving for epsilon, Initial residual = 4.23406e-05, Final residual = 1.96113e-06, No Iterations 3
smoothSolver:  Solving for k, Initial residual = 5.43328e-05, Final residual = 3.06861e-06, No Iterations 3
ExecutionTime = 109.1 s  ClockTime = 109 s

Time = 477

Power coefficient["0"] ... 0.389163

Power coefficient["1"] ... 0.407677

Power coefficient["2"] ... 0.380243

smoothSolver:  Solving for Ux, Initial residual = 5.27902e-05, Final residual = 3.36081e-06, No Iterations 3
smoothSolver:  Solving for Uy, Initial residual = 0.000119331, Final residual = 4.45966e-06, No Iterations 3
GAMG:  Solving for p, Initial residual = 1.52902e-05, Final residual = 7.48229e-07, No Iterations 3
time step continuity errors : sum local = 8.15465e-09, global = -4.06124e-09, cumulative = -2.56925e-05
smoothSolver:  Solving for epsilon, Initial residual = 4.19153e-05, Final residual = 1.94166e-06, No Iterations 3
smoothSolver:  Solving for k, Initial residual = 5.37857e-05, Final residual = 3.03811e-06, No Iterations 3
ExecutionTime = 109.33 s  ClockTime = 110 s

Time = 478

Power coefficient["0"] ... 0.389163

Power coefficient["1"] ... 0.407677

Power coefficient["2"] ... 0.380244

smoothSolver:  Solving for Ux, Initial residual = 5.22765e-05, Final residual = 3.32862e-06, No Iterations 3
smoothSolver:  Solving for Uy, Initial residual = 0.000118123, Final residual = 4.41498e-06, No Iterations 3
GAMG:  Solving for p, Initial residual = 1.51064e-05, Final residual = 7.35602e-07, No Iterations 3
time step continuity errors : sum local = 8.01754e-09, global = -3.97361e-09, cumulative = -2.56965e-05
smoothSolver:  Solving for epsilon, Initial residual = 4.14947e-05, Final residual = 1.92239e-06, No Iterations 3
smoothSolver:  Solving for k, Initial residual = 5.32446e-05, Final residual = 3.00795e-06, No Iterations 3
ExecutionTime = 109.57 s  ClockTime = 110 s

Time = 479

Power coefficient["0"] ... 0.389163

Power coefficient["1"] ... 0.407677

Power coefficient["2"] ... 0.380244

smoothSolver:  Solving for Ux, Initial residual = 5.17682e-05, Final residual = 3.29678e-06, No Iterations 3
smoothSolver:  Solving for Uy, Initial residual = 0.000116922, Final residual = 4.37057e-06, No Iterations 3
GAMG:  Solving for p, Initial residual = 1.49412e-05, Final residual = 7.2791e-07, No Iterations 3
time step continuity errors : sum local = 7.93419e-09, global = -3.90827e-09, cumulative = -2.57004e-05
smoothSolver:  Solving for epsilon, Initial residual = 4.10786e-05, Final residual = 1.90332e-06, No Iterations 3
smoothSolver:  Solving for k, Initial residual = 5.27094e-05, Final residual = 2.97811e-06, No Iterations 3
ExecutionTime = 109.8 s  ClockTime = 110 s

Time = 480

Power coefficient["0"] ... 0.389163

Power coefficient["1"] ... 0.407677

Power coefficient["2"] ... 0.380245

smoothSolver:  Solving for Ux, Initial residual = 5.12653e-05, Final residual = 3.26527e-06, No Iterations 3
smoothSolver:  Solving for Uy, Initial residual = 0.000115735, Final residual = 4.32664e-06, No Iterations 3
GAMG:  Solving for p, Initial residual = 1.47742e-05, Final residual = 7.24024e-07, No Iterations 3
time step continuity errors : sum local = 7.89232e-09, global = -3.88148e-09, cumulative = -2.57043e-05
smoothSolver:  Solving for epsilon, Initial residual = 4.0667e-05, Final residual = 1.88445e-06, No Iterations 3
smoothSolver:  Solving for k, Initial residual = 5.21798e-05, Final residual = 2.94858e-06, No Iterations 3
ExecutionTime = 110.03 s  ClockTime = 110 s

Time = 481

Power coefficient["0"] ... 0.389163

Power coefficient["1"] ... 0.407678

Power coefficient["2"] ... 0.380245

smoothSolver:  Solving for Ux, Initial residual = 5.07675e-05, Final residual = 3.23407e-06, No Iterations 3
smoothSolver:  Solving for Uy, Initial residual = 0.000114566, Final residual = 4.28343e-06, No Iterations 3
GAMG:  Solving for p, Initial residual = 1.45968e-05, Final residual = 7.20538e-07, No Iterations 3
time step continuity errors : sum local = 7.8548e-09, global = -3.87414e-09, cumulative = -2.57082e-05
smoothSolver:  Solving for epsilon, Initial residual = 4.02598e-05, Final residual = 1.86577e-06, No Iterations 3
smoothSolver:  Solving for k, Initial residual = 5.1656e-05, Final residual = 2.91936e-06, No Iterations 3
ExecutionTime = 110.27 s  ClockTime = 111 s

Time = 482

Power coefficient["0"] ... 0.389163

Power coefficient["1"] ... 0.407678

Power coefficient["2"] ... 0.380246

smoothSolver:  Solving for Ux, Initial residual = 5.02749e-05, Final residual = 3.20317e-06, No Iterations 3
smoothSolver:  Solving for Uy, Initial residual = 0.000113415, Final residual = 4.24099e-06, No Iterations 3
GAMG:  Solving for p, Initial residual = 1.44158e-05, Final residual = 7.14854e-07, No Iterations 3
time step continuity errors : sum local = 7.79331e-09, global = -3.85437e-09, cumulative = -2.5712e-05
smoothSolver:  Solving for epsilon, Initial residual = 3.98569e-05, Final residual = 1.84729e-06, No Iterations 3
smoothSolver:  Solving for k, Initial residual = 5.11377e-05, Final residual = 2.89045e-06, No Iterations 3
ExecutionTime = 110.51 s  ClockTime = 111 s

Time = 483

Power coefficient["0"] ... 0.389163

Power coefficient["1"] ... 0.407678

Power coefficient["2"] ... 0.380246

smoothSolver:  Solving for Ux, Initial residual = 4.97873e-05, Final residual = 3.17258e-06, No Iterations 3
smoothSolver:  Solving for Uy, Initial residual = 0.000112279, Final residual = 4.19915e-06, No Iterations 3
GAMG:  Solving for p, Initial residual = 1.42396e-05, Final residual = 7.06698e-07, No Iterations 3
time step continuity errors : sum local = 7.70487e-09, global = -3.80759e-09, cumulative = -2.57158e-05
smoothSolver:  Solving for epsilon, Initial residual = 3.94584e-05, Final residual = 1.829e-06, No Iterations 3
smoothSolver:  Solving for k, Initial residual = 5.06249e-05, Final residual = 2.86184e-06, No Iterations 3
ExecutionTime = 110.75 s  ClockTime = 111 s

Time = 484

Power coefficient["0"] ... 0.389163

Power coefficient["1"] ... 0.407678

Power coefficient["2"] ... 0.380247

smoothSolver:  Solving for Ux, Initial residual = 4.93045e-05, Final residual = 3.1423e-06, No Iterations 3
smoothSolver:  Solving for Uy, Initial residual = 0.000111155, Final residual = 4.15775e-06, No Iterations 3
GAMG:  Solving for p, Initial residual = 1.40707e-05, Final residual = 6.97619e-07, No Iterations 3
time step continuity errors : sum local = 7.60634e-09, global = -3.74758e-09, cumulative = -2.57196e-05
smoothSolver:  Solving for epsilon, Initial residual = 3.90642e-05, Final residual = 1.8109e-06, No Iterations 3
smoothSolver:  Solving for k, Initial residual = 5.01174e-05, Final residual = 2.83353e-06, No Iterations 3
ExecutionTime = 111.06 s  ClockTime = 111 s

Time = 485

Power coefficient["0"] ... 0.389163

Power coefficient["1"] ... 0.407678

Power coefficient["2"] ... 0.380247

smoothSolver:  Solving for Ux, Initial residual = 4.88267e-05, Final residual = 3.11233e-06, No Iterations 3
smoothSolver:  Solving for Uy, Initial residual = 0.000110041, Final residual = 4.11673e-06, No Iterations 3
GAMG:  Solving for p, Initial residual = 1.39073e-05, Final residual = 6.89312e-07, No Iterations 3
time step continuity errors : sum local = 7.5162e-09, global = -3.69731e-09, cumulative = -2.57233e-05
smoothSolver:  Solving for epsilon, Initial residual = 3.86741e-05, Final residual = 1.79299e-06, No Iterations 3
smoothSolver:  Solving for k, Initial residual = 4.96153e-05, Final residual = 2.8055e-06, No Iterations 3
ExecutionTime = 111.3 s  ClockTime = 112 s

Time = 486

Power coefficient["0"] ... 0.389163

Power coefficient["1"] ... 0.407678

Power coefficient["2"] ... 0.380248

smoothSolver:  Solving for Ux, Initial residual = 4.83539e-05, Final residual = 3.08268e-06, No Iterations 3
smoothSolver:  Solving for Uy, Initial residual = 0.000108939, Final residual = 4.07618e-06, No Iterations 3
GAMG:  Solving for p, Initial residual = 1.37445e-05, Final residual = 6.82292e-07, No Iterations 3
time step continuity errors : sum local = 7.4401e-09, global = -3.66606e-09, cumulative = -2.57269e-05
smoothSolver:  Solving for epsilon, Initial residual = 3.82882e-05, Final residual = 1.77528e-06, No Iterations 3
smoothSolver:  Solving for k, Initial residual = 4.91184e-05, Final residual = 2.77776e-06, No Iterations 3
ExecutionTime = 111.54 s  ClockTime = 112 s

Time = 487

Power coefficient["0"] ... 0.389163

Power coefficient["1"] ... 0.407678

Power coefficient["2"] ... 0.380248

smoothSolver:  Solving for Ux, Initial residual = 4.78862e-05, Final residual = 3.05332e-06, No Iterations 3
smoothSolver:  Solving for Uy, Initial residual = 0.000107851, Final residual = 4.03619e-06, No Iterations 3
GAMG:  Solving for p, Initial residual = 1.35802e-05, Final residual = 6.76009e-07, No Iterations 3
time step continuity errors : sum local = 7.37201e-09, global = -3.64504e-09, cumulative = -2.57306e-05
smoothSolver:  Solving for epsilon, Initial residual = 3.79064e-05, Final residual = 1.75775e-06, No Iterations 3
smoothSolver:  Solving for k, Initial residual = 4.86267e-05, Final residual = 2.75029e-06, No Iterations 3
ExecutionTime = 111.77 s  ClockTime = 112 s

Time = 488

Power coefficient["0"] ... 0.389163

Power coefficient["1"] ... 0.407679

Power coefficient["2"] ... 0.380249

smoothSolver:  Solving for Ux, Initial residual = 4.74233e-05, Final residual = 3.02426e-06, No Iterations 3
smoothSolver:  Solving for Uy, Initial residual = 0.000106778, Final residual = 3.99677e-06, No Iterations 3
GAMG:  Solving for p, Initial residual = 1.34176e-05, Final residual = 6.69754e-07, No Iterations 3
time step continuity errors : sum local = 7.30422e-09, global = -3.61866e-09, cumulative = -2.57342e-05
smoothSolver:  Solving for epsilon, Initial residual = 3.75288e-05, Final residual = 1.74041e-06, No Iterations 3
smoothSolver:  Solving for k, Initial residual = 4.814e-05, Final residual = 2.72311e-06, No Iterations 3
ExecutionTime = 112.01 s  ClockTime = 112 s

Time = 489

Power coefficient["0"] ... 0.389163

Power coefficient["1"] ... 0.407679

Power coefficient["2"] ... 0.380249

smoothSolver:  Solving for Ux, Initial residual = 4.69652e-05, Final residual = 2.99549e-06, No Iterations 3
smoothSolver:  Solving for Uy, Initial residual = 0.000105718, Final residual = 3.95787e-06, No Iterations 3
GAMG:  Solving for p, Initial residual = 1.32599e-05, Final residual = 6.63287e-07, No Iterations 3
time step continuity errors : sum local = 7.2341e-09, global = -3.57939e-09, cumulative = -2.57378e-05
smoothSolver:  Solving for epsilon, Initial residual = 3.71553e-05, Final residual = 1.72325e-06, No Iterations 3
smoothSolver:  Solving for k, Initial residual = 4.76584e-05, Final residual = 2.69619e-06, No Iterations 3
ExecutionTime = 112.27 s  ClockTime = 113 s

Time = 490

Power coefficient["0"] ... 0.389163

Power coefficient["1"] ... 0.407679

Power coefficient["2"] ... 0.38025

smoothSolver:  Solving for Ux, Initial residual = 4.65117e-05, Final residual = 2.96701e-06, No Iterations 3
smoothSolver:  Solving for Uy, Initial residual = 0.000104669, Final residual = 3.91941e-06, No Iterations 3
GAMG:  Solving for p, Initial residual = 1.31069e-05, Final residual = 6.5677e-07, No Iterations 3
time step continuity errors : sum local = 7.16343e-09, global = -3.53293e-09, cumulative = -2.57413e-05
smoothSolver:  Solving for epsilon, Initial residual = 3.67859e-05, Final residual = 1.70627e-06, No Iterations 3
smoothSolver:  Solving for k, Initial residual = 4.71817e-05, Final residual = 2.66954e-06, No Iterations 3
ExecutionTime = 112.5 s  ClockTime = 113 s

Time = 491

Power coefficient["0"] ... 0.389163

Power coefficient["1"] ... 0.407679

Power coefficient["2"] ... 0.38025

smoothSolver:  Solving for Ux, Initial residual = 4.60627e-05, Final residual = 2.93882e-06, No Iterations 3
smoothSolver:  Solving for Uy, Initial residual = 0.000103632, Final residual = 3.88138e-06, No Iterations 3
GAMG:  Solving for p, Initial residual = 1.29556e-05, Final residual = 6.50367e-07, No Iterations 3
time step continuity errors : sum local = 7.09399e-09, global = -3.4903e-09, cumulative = -2.57448e-05
smoothSolver:  Solving for epsilon, Initial residual = 3.64205e-05, Final residual = 1.68947e-06, No Iterations 3
smoothSolver:  Solving for k, Initial residual = 4.67099e-05, Final residual = 2.64316e-06, No Iterations 3
ExecutionTime = 112.73 s  ClockTime = 113 s

Time = 492

Power coefficient["0"] ... 0.389163

Power coefficient["1"] ... 0.407679

Power coefficient["2"] ... 0.38025

smoothSolver:  Solving for Ux, Initial residual = 4.56184e-05, Final residual = 2.91091e-06, No Iterations 3
smoothSolver:  Solving for Uy, Initial residual = 0.000102606, Final residual = 3.8438e-06, No Iterations 3
GAMG:  Solving for p, Initial residual = 1.28041e-05, Final residual = 6.4399e-07, No Iterations 3
time step continuity errors : sum local = 7.02482e-09, global = -3.45706e-09, cumulative = -2.57482e-05
smoothSolver:  Solving for epsilon, Initial residual = 3.60593e-05, Final residual = 1.67284e-06, No Iterations 3
smoothSolver:  Solving for k, Initial residual = 4.6243e-05, Final residual = 2.61704e-06, No Iterations 3
ExecutionTime = 112.98 s  ClockTime = 113 s

Time = 493

Power coefficient["0"] ... 0.389163

Power coefficient["1"] ... 0.407679

Power coefficient["2"] ... 0.380251

smoothSolver:  Solving for Ux, Initial residual = 4.51787e-05, Final residual = 2.88329e-06, No Iterations 3
smoothSolver:  Solving for Uy, Initial residual = 0.000101593, Final residual = 3.80671e-06, No Iterations 3
GAMG:  Solving for p, Initial residual = 1.26526e-05, Final residual = 6.37444e-07, No Iterations 3
time step continuity errors : sum local = 6.95379e-09, global = -3.42993e-09, cumulative = -2.57517e-05
smoothSolver:  Solving for epsilon, Initial residual = 3.57019e-05, Final residual = 1.6564e-06, No Iterations 3
smoothSolver:  Solving for k, Initial residual = 4.57808e-05, Final residual = 2.59119e-06, No Iterations 3
ExecutionTime = 113.21 s  ClockTime = 113 s

Time = 494

Power coefficient["0"] ... 0.389163

Power coefficient["1"] ... 0.407679

Power coefficient["2"] ... 0.380251

smoothSolver:  Solving for Ux, Initial residual = 4.47435e-05, Final residual = 2.85594e-06, No Iterations 3
smoothSolver:  Solving for Uy, Initial residual = 0.000100593, Final residual = 3.77011e-06, No Iterations 3
GAMG:  Solving for p, Initial residual = 1.25034e-05, Final residual = 6.30698e-07, No Iterations 3
time step continuity errors : sum local = 6.88058e-09, global = -3.40149e-09, cumulative = -2.57551e-05
smoothSolver:  Solving for epsilon, Initial residual = 3.53485e-05, Final residual = 1.64012e-06, No Iterations 3
smoothSolver:  Solving for k, Initial residual = 4.53233e-05, Final residual = 2.56558e-06, No Iterations 3
ExecutionTime = 113.45 s  ClockTime = 114 s

Time = 495

Power coefficient["0"] ... 0.389163

Power coefficient["1"] ... 0.407679

Power coefficient["2"] ... 0.380252

smoothSolver:  Solving for Ux, Initial residual = 4.43129e-05, Final residual = 2.82887e-06, No Iterations 3
smoothSolver:  Solving for Uy, Initial residual = 9.9604e-05, Final residual = 3.73396e-06, No Iterations 3
GAMG:  Solving for p, Initial residual = 1.2358e-05, Final residual = 6.23982e-07, No Iterations 3
time step continuity errors : sum local = 6.80767e-09, global = -3.36745e-09, cumulative = -2.57584e-05
smoothSolver:  Solving for epsilon, Initial residual = 3.49989e-05, Final residual = 1.62402e-06, No Iterations 3
smoothSolver:  Solving for k, Initial residual = 4.48705e-05, Final residual = 2.54023e-06, No Iterations 3
ExecutionTime = 113.69 s  ClockTime = 114 s


SIMPLE solution converged in 495 iterations

End

